pcf
* control data
restart estimation
   4932  13405     15      0       7
     10     13 single  point   1   0   0
  5.0  -3.0   0.3  0.03    10
 15.0  15.0 0.001  0
  0.1
    0  0.01     3     3  0.01     3
    1     1     1
* singular value decomposition
         1
      1000     1E-07
         0
* parameter groups
prms           relative   0.020  0.0   switch  2.0   parabolic
uzf            relative   0.020  0.0   switch  2.0   parabolic
StrmBed        relative   0.020  0.0   switch  2.0   parabolic
L1_Kh          relative   0.020  0.0   switch  2.0   parabolic
L2_Kh_Zn2      relative   0.020  0.0   switch  2.0   parabolic
L2_Kh_Zn3      relative   0.020  0.0   switch  2.0   parabolic
L2_Kh_Zn4      relative   0.020  0.0   switch  2.0   parabolic
L2_Kh_Zn5      relative   0.020  0.0   switch  2.0   parabolic
L2_Kh_Zn6      relative   0.020  0.0   switch  2.0   parabolic
L2_Kh_Zn7      relative   0.020  0.0   switch  2.0   parabolic
L2_Kh_Zn8      relative   0.020  0.0   switch  2.0   parabolic
L2_Kh_Zn9      relative   0.020  0.0   switch  2.0   parabolic
L3_Kh_Zn10     relative   0.020  0.0   switch  2.0   parabolic
L1_SY          relative   0.020  0.0   switch  2.0   parabolic
L2_SY          relative   0.020  0.0   switch  2.0   parabolic
* parameter data
ssr2gw_scale     log   factor   1.0000000      0.00010   20.000       prms     1.0000    0.0000   1
vks2ssr2_rat   fixed   factor   2.0000000      2.00000     10.0       prms     1.0000    0.0000   1
finf           fixed   factor   0.4007903      0.10000    1.000        uzf     1.0000    0.0000   1
extdp          fixed   factor   0.4097178      0.10000    1.000        uzf     1.0000    0.0000   1
pet            fixed   factor   0.5563481      0.50000    1.200        uzf     1.0000    0.0000   1
srfk_mult      fixed   factor   1.5268610E-02  0.000100    10.0        uzf     1.0000    0.0000   1
kh_lay_1       fixed   factor    1.041357      0.00010    1000.      l1_kh     1.0000    0.0000   1
strmbdk_1      fixed   factor 0.1996020     0.00001    500.0    strmbed     1.0000    0.0000   1
strmbdk_2      fixed   factor 0.2554539     0.00001    500.0    strmbed     1.0000    0.0000   1
strmbdk_3      fixed   factor 0.2508827     0.00001    500.0    strmbed     1.0000    0.0000   1
strmbdk_4      fixed   factor 0.2381671     0.00001    500.0    strmbed     1.0000    0.0000   1
strmbdk_5      fixed   factor 0.2496117     0.00001    500.0    strmbed     1.0000    0.0000   1
strmbdk_6      fixed   factor 0.2631255     0.00001    500.0    strmbed     1.0000    0.0000   1
strmbdk_7      fixed   factor 0.2539457     0.00001    500.0    strmbed     1.0000    0.0000   1
strmbdk_8      fixed   factor 0.2620808     0.00001    500.0    strmbed     1.0000    0.0000   1
strmbdk_9      fixed   factor 0.2500773     0.00001    500.0    strmbed     1.0000    0.0000   1
strmbdk_10     fixed   factor 0.7966654     0.00001    500.0    strmbed     1.0000    0.0000   1
strmbdk_11     fixed   factor 6.1800070E-03 0.00001    500.0    strmbed     1.0000    0.0000   1
strmbdk_24     fixed   factor 6.0700001E-02 0.00001    500.0    strmbed     1.0000    0.0000   1
strmbdk_12     fixed   factor 0.2513659     0.00001    500.0    strmbed     1.0000    0.0000   1
strmbdk_13     fixed   factor 0.2492658     0.00001    500.0    strmbed     1.0000    0.0000   1
strmbdk_14     fixed   factor 0.2499387     0.00001    500.0    strmbed     1.0000    0.0000   1
strmbdk_15     fixed   factor 0.2847745     0.00001    500.0    strmbed     1.0000    0.0000   1
strmbdk_16     fixed   factor 0.1300695     0.00001    500.0    strmbed     1.0000    0.0000   1
strmbdk_17     fixed   factor 0.2502033     0.00001    500.0    strmbed     1.0000    0.0000   1
strmbdk_18     fixed   factor 0.2633358     0.00001    500.0    strmbed     1.0000    0.0000   1
strmbdk_19     fixed   factor 0.2408187     0.00001    500.0    strmbed     1.0000    0.0000   1
strmbdk_20     fixed   factor 3.2000000E-02 0.00001    500.0    strmbed     1.0000    0.0000   1
strmbdk_21     fixed   factor 0.3765422     0.00001    500.0    strmbed     1.0000    0.0000   1
strmbdk_22     fixed   factor 7.7500000E-02 0.00001    500.0    strmbed     1.0000    0.0000   1
strmbdk_23     fixed   factor 0.2325242     0.00001    500.0    strmbed     1.0000    0.0000   1
strmbdk_25     fixed   factor 6.6199998E-02 0.00001    500.0    strmbed     1.0000    0.0000   1
strmbdk_26     fixed   factor 0.8119050     0.00001    500.0    strmbed     1.0000    0.0000   1
strmbdk_27     fixed   factor 1.1999839E-02 0.00001    500.0    strmbed     1.0000    0.0000   1
strmbdk_28     fixed   factor 4.4599940E-03 0.00001    500.0    strmbed     1.0000    0.0000   1
strmbdk_29     fixed   factor 0.1272330     0.00001    500.0    strmbed     1.0000    0.0000   1
strmbdk_30     fixed   factor 0.7761618     0.00001    500.0    strmbed     1.0000    0.0000   1
strmbdk_31     fixed   factor 2.6199876E-04 0.00001    500.0    strmbed     1.0000    0.0000   1
strmbdk_32     fixed   factor 0.2243738     0.00001    500.0    strmbed     1.0000    0.0000   1
strmbdk_33     fixed   factor 0.2320935     0.00001    500.0    strmbed     1.0000    0.0000   1
strmbdk_34     fixed   factor 2.7400864E-02 0.00001    500.0    strmbed     1.0000    0.0000   1
strmbdk_35     fixed   factor 0.1814751     0.00001    500.0    strmbed     1.0000    0.0000   1
strmbdk_36     fixed   factor 0.2471506     0.00001    500.0    strmbed     1.0000    0.0000   1
strmbdk_37     fixed   factor 6.0699000E-02 0.00001    500.0    strmbed     1.0000    0.0000   1
strmbdk_38     fixed   factor 0.2337652     0.00001    500.0    strmbed     1.0000    0.0000   1
strmbdk_39     fixed   factor 3.6899919E-04 0.00001    500.0    strmbed     1.0000    0.0000   1
pp_3_l1 fixed factor 7.68E-02 0.00001 500 l1_kh 1 0 1
pp_4_l1 fixed factor 2.68E-02 0.00001 500 l1_kh 1 0 1
pp_9_l1 fixed factor 6.56E-03 0.00001 500 l1_kh 1 0 1
pp_10_l1 fixed factor 2.000002 0.00001 500 l1_kh 1 0 1
pp_12_l1 fixed factor 2.13E-02 0.00001 500 l1_kh 1 0 1
pp_16_l1 fixed factor 6.28E-02 0.00001 500 l1_kh 1 0 1
pp_17_l1 fixed factor 8.10E-03 0.00001 500 l1_kh 1 0 1
pp_18_l1 fixed factor 2.72E-02 0.00001 500 l1_kh 1 0 1
pp_23_l1 fixed factor 2.000003 0.00001 500 l1_kh 1 0 1
pp_24_l1 fixed factor 1.877803 0.00001 500 l1_kh 1 0 1
pp_26_l1 fixed factor 3.73E-02 0.00001 500 l1_kh 1 0 1
pp_27_l1 fixed factor 5.27E-02 0.00001 500 l1_kh 1 0 1
pp_29_l1 fixed factor 1.999288 0.00001 500 l1_kh 1 0 1
pp_30_l1 fixed factor 2.92E-02 0.00001 500 l1_kh 1 0 1
pp_34_l1 fixed factor 1.91E-02 0.00001 500 l1_kh 1 0 1
pp_35_l1 fixed factor 1.76E-02 0.00001 500 l1_kh 1 0 1
pp_36_l1 fixed factor 1.997972 0.00001 500 l1_kh 1 0 1
pp_39_l1 fixed factor 0.1312696 0.00001 500 l1_kh 1 0 1
pp_41_l1 fixed factor 0.5467011 0.00001 500 l1_kh 1 0 1
pp_42_l1 fixed factor 2.000003 0.00001 500 l1_kh 1 0 1
pp_45_l1 fixed factor 6.37E-03 0.00001 500 l1_kh 1 0 1
pp_47_l1 fixed factor 4.67E-02 0.00001 500 l1_kh 1 0 1
pp_50_l1 fixed factor 8.70E-02 0.00001 500 l1_kh 1 0 1
pp_51_l1 fixed factor 1.41E-02 0.00001 500 l1_kh 1 0 1
pp_54_l1 fixed factor 0.1156078 0.00001 500 l1_kh 1 0 1
pp_56_l1 fixed factor 1.39E-02 0.00001 500 l1_kh 1 0 1
pp_58_l1 fixed factor 5.23E-02 0.00001 500 l1_kh 1 0 1
pp_61_l1 fixed factor 3.13E-02 0.00001 500 l1_kh 1 0 1
pp_63_l1 fixed factor 4.12E-02 0.00001 500 l1_kh 1 0 1
pp_68_l1 fixed factor 1.34E-02 0.00001 500 l1_kh 1 0 1
pp_71_l1 fixed factor 6.10E-02 0.00001 500 l1_kh 1 0 1
pp_77_l1 fixed factor 1.30E-02 0.00001 500 l1_kh 1 0 1
pp_78_l1 fixed factor 2.51E-02 0.00001 500 l1_kh 1 0 1
pp_82_l1 fixed factor 0.1144173 0.00001 500 l1_kh 1 0 1
pp_88_l1 fixed factor 2.18E-02 0.00001 500 l1_kh 1 0 1
pp_90_l1 fixed factor 2.53E-02 0.00001 500 l1_kh 1 0 1
pp_91_l1 fixed factor 3.66E-02 0.00001 500 l1_kh 1 0 1
pp_93_l1 fixed factor 3.22E-02 0.00001 500 l1_kh 1 0 1
pp_94_l1 fixed factor 2.09E-02 0.00001 500 l1_kh 1 0 1
pp_95_l1 fixed factor 2.09E-02 0.00001 500 l1_kh 1 0 1
pp_96_l1 fixed factor 8.27E-02 0.00001 500 l1_kh 1 0 1
pp_98_l1 fixed factor 3.16E-02 0.00001 500 l1_kh 1 0 1
pp_99_l1 fixed factor 2.96E-02 0.00001 500 l1_kh 1 0 1
pp_101_l1 fixed factor 4.90E-02 0.00001 500 l1_kh 1 0 1
pp_103_l1 fixed factor 3.20E-02 0.00001 500 l1_kh 1 0 1
pp_105_l1 fixed factor 1.70E-02 0.00001 500 l1_kh 1 0 1
pp_107_l1 fixed factor 2.90E-02 0.00001 500 l1_kh 1 0 1
pp_108_l1 fixed factor 6.72E-04 0.00001 500 l1_kh 1 0 1
pp_110_l1 fixed factor 2.17E-02 0.00001 500 l1_kh 1 0 1
pp_114_l1 fixed factor 2.63E-02 0.00001 500 l1_kh 1 0 1
pp_117_l1 fixed factor 1.66E-02 0.00001 500 l1_kh 1 0 1
pp_119_l1 fixed factor 1.86E-02 0.00001 500 l1_kh 1 0 1
pp_122_l1 fixed factor 2.23E-02 0.00001 500 l1_kh 1 0 1
pp_125_l1 fixed factor 8.39E-03 0.00001 500 l1_kh 1 0 1
pp_126_l1 fixed factor 1.83E-02 0.00001 500 l1_kh 1 0 1
pp_127_l1 fixed factor 1.95E-02 0.00001 500 l1_kh 1 0 1
pp_128_l1 fixed factor 1.45E-02 0.00001 500 l1_kh 1 0 1
pp_129_l1 fixed factor 8.79E-03 0.00001 500 l1_kh 1 0 1
pp_135_l1 fixed factor 1.82E-02 0.00001 500 l1_kh 1 0 1
pp_142_l1 fixed factor 1.58E-02 0.00001 500 l1_kh 1 0 1
pp_145_l1 fixed factor 1.24E-02 0.00001 500 l1_kh 1 0 1
pp_148_l1 fixed factor 1.50E-02 0.00001 500 l1_kh 1 0 1
pp_152_l1 fixed factor 1.71E-02 0.00001 500 l1_kh 1 0 1
pp_153_l1 fixed factor 2.12E-02 0.00001 500 l1_kh 1 0 1
pp_155_l1 fixed factor 2.14E-02 0.00001 500 l1_kh 1 0 1
pp_159_l1 fixed factor 1.84E-02 0.00001 500 l1_kh 1 0 1
pp_160_l1 fixed factor 1.89E-02 0.00001 500 l1_kh 1 0 1
pp_164_l1 fixed factor 2.09E-02 0.00001 500 l1_kh 1 0 1
pp_166_l1 fixed factor 2.13E-02 0.00001 500 l1_kh 1 0 1
pp_167_l1 fixed factor 2.27E-02 0.00001 500 l1_kh 1 0 1
pp_168_l1 fixed factor 2.62E-02 0.00001 500 l1_kh 1 0 1
pp_170_l1 fixed factor 2.52E-02 0.00001 500 l1_kh 1 0 1
pp_174_l1 fixed factor 1.94E-02 0.00001 500 l1_kh 1 0 1
pp_179_l1 fixed factor 2.10E-02 0.00001 500 l1_kh 1 0 1
pp_182_l1 fixed factor 3.16E-02 0.00001 500 l1_kh 1 0 1
pp_187_l1 fixed factor 2.59E-02 0.00001 500 l1_kh 1 0 1
pp_189_l1 fixed factor 2.27E-02 0.00001 500 l1_kh 1 0 1
pp_190_l1 fixed factor 1.83E-02 0.00001 500 l1_kh 1 0 1
pp_191_l1 fixed factor 1.55E-02 0.00001 500 l1_kh 1 0 1
pp_193_l1 fixed factor 2.18E-02 0.00001 500 l1_kh 1 0 1
pp_198_l1 fixed factor 4.27E-02 0.00001 500 l1_kh 1 0 1
pp_200_l1 fixed factor 4.84E-03 0.00001 500 l1_kh 1 0 1
pp_201_l1 fixed factor 1.93E-02 0.00001 500 l1_kh 1 0 1
pp_202_l1 fixed factor 1.62E-02 0.00001 500 l1_kh 1 0 1
pp_205_l1 fixed factor 2.07E-02 0.00001 500 l1_kh 1 0 1
pp_206_l1 fixed factor 2.18E-02 0.00001 500 l1_kh 1 0 1
pp_207_l1 fixed factor 1.99E-02 0.00001 500 l1_kh 1 0 1
pp_208_l1 fixed factor 1.97E-02 0.00001 500 l1_kh 1 0 1
pp_209_l1 fixed factor 1.48E-02 0.00001 500 l1_kh 1 0 1
pp_210_l1 fixed factor 2.09E-02 0.00001 500 l1_kh 1 0 1
pp_212_l1 fixed factor 2.51E-02 0.00001 500 l1_kh 1 0 1
pp_214_l1 fixed factor 2.02E-02 0.00001 500 l1_kh 1 0 1
pp_215_l1 fixed factor 2.10E-02 0.00001 500 l1_kh 1 0 1
pp_216_l1 fixed factor 3.32E-02 0.00001 500 l1_kh 1 0 1
pp_217_l1 fixed factor 1.97E-02 0.00001 500 l1_kh 1 0 1
pp_218_l1 fixed factor 2.02E-02 0.00001 500 l1_kh 1 0 1
pp_219_l1 fixed factor 2.23E-02 0.00001 500 l1_kh 1 0 1
pp_222_l1 fixed factor 1.66E-02 0.00001 500 l1_kh 1 0 1
pp_224_l1 fixed factor 2.43E-02 0.00001 500 l1_kh 1 0 1
pp_225_l1 fixed factor 2.08E-02 0.00001 500 l1_kh 1 0 1
pp_226_l1 fixed factor 1.93E-02 0.00001 500 l1_kh 1 0 1
pp_227_l1 fixed factor 2.40E-02 0.00001 500 l1_kh 1 0 1
pp_229_l1 fixed factor 1.37E-02 0.00001 500 l1_kh 1 0 1
pp_233_l1 fixed factor 2.26E-02 0.00001 500 l1_kh 1 0 1
pp_235_l1 fixed factor 2.59E-02 0.00001 500 l1_kh 1 0 1
pp_236_l1 fixed factor 6.38E-02 0.00001 500 l1_kh 1 0 1
pp_237_l1 fixed factor 0.1790142 0.00001 500 l1_kh 1 0 1
pp_241_l1 fixed factor 3.87E-02 0.00001 500 l1_kh 1 0 1
pp_242_l1 fixed factor 6.74E-03 0.00001 500 l1_kh 1 0 1
pp_243_l1 fixed factor 3.00E-02 0.00001 500 l1_kh 1 0 1
pp_245_l1 fixed factor 1.55E-02 0.00001 500 l1_kh 1 0 1
pp_246_l1 fixed factor 9.65E-03 0.00001 500 l1_kh 1 0 1
pp_247_l1 fixed factor 2.72E-03 0.00001 500 l1_kh 1 0 1
pp_251_l1 fixed factor 2.74E-02 0.00001 500 l1_kh 1 0 1
pp_252_l1 fixed factor 1.68E-02 0.00001 500 l1_kh 1 0 1
pp_253_l1 fixed factor 4.31E-02 0.00001 500 l1_kh 1 0 1
pp_254_l1 fixed factor 5.28E-02 0.00001 500 l1_kh 1 0 1
pp_255_l1 fixed factor 2.18E-02 0.00001 500 l1_kh 1 0 1
pp_257_l1 fixed factor 3.87E-02 0.00001 500 l1_kh 1 0 1
pp_258_l1 fixed factor 4.31E-02 0.00001 500 l1_kh 1 0 1
pp_259_l1 fixed factor 0.1043735 0.00001 500 l1_kh 1 0 1
pp_260_l1 fixed factor 4.29E-02 0.00001 500 l1_kh 1 0 1
pp_264_l1 fixed factor 6.36E-03 0.00001 500 l1_kh 1 0 1
pp_269_l1 fixed factor 2.28E-02 0.00001 500 l1_kh 1 0 1
pp_272_l1 fixed factor 7.97E-03 0.00001 500 l1_kh 1 0 1
pp_273_l1 fixed factor 0.1086621 0.00001 500 l1_kh 1 0 1
pp_277_l1 fixed factor 2.80E-02 0.00001 500 l1_kh 1 0 1
pp_278_l1 fixed factor 2.22E-02 0.00001 500 l1_kh 1 0 1
pp_282_l1 fixed factor 1.28E-02 0.00001 500 l1_kh 1 0 1
pp_286_l1 fixed factor 1.39E-02 0.00001 500 l1_kh 1 0 1
pp_290_l1 fixed factor 1.85E-02 0.00001 500 l1_kh 1 0 1
pp_291_l1 fixed factor 8.66E-03 0.00001 500 l1_kh 1 0 1
pp_294_l1 fixed factor 9.85E-03 0.00001 500 l1_kh 1 0 1
pp_295_l1 fixed factor 8.71E-02 0.00001 500 l1_kh 1 0 1
pp_296_l1 fixed factor 2.51E-02 0.00001 500 l1_kh 1 0 1
pp_302_l1 fixed factor 0.1221886 0.00001 500 l1_kh 1 0 1
pp_303_l1 fixed factor 1.70E-02 0.00001 500 l1_kh 1 0 1
pp_306_l1 fixed factor 4.23E-02 0.00001 500 l1_kh 1 0 1
pp_307_l1 fixed factor 4.12E-02 0.00001 500 l1_kh 1 0 1
pp_309_l1 fixed factor 4.70E-03 0.00001 500 l1_kh 1 0 1
pp_313_l1 fixed factor 1.62E-02 0.00001 500 l1_kh 1 0 1
pp_318_l1 fixed factor 6.04E-02 0.00001 500 l1_kh 1 0 1
pp_321_l1 fixed factor 3.15E-02 0.00001 500 l1_kh 1 0 1
pp_323_l1 fixed factor 8.79E-03 0.00001 500 l1_kh 1 0 1
pp_324_l1 fixed factor 2.85E-02 0.00001 500 l1_kh 1 0 1
pp_325_l1 fixed factor 6.40E-03 0.00001 500 l1_kh 1 0 1
pp_330_l1 fixed factor 3.17E-02 0.00001 500 l1_kh 1 0 1
pp_340_l1 fixed factor 2.79E-02 0.00001 500 l1_kh 1 0 1
pp_342_l1 fixed factor 1.86E-02 0.00001 500 l1_kh 1 0 1
pp_344_l1 fixed factor 2.06E-02 0.00001 500 l1_kh 1 0 1
pp_345_l1 fixed factor 1.89E-02 0.00001 500 l1_kh 1 0 1
pp_347_l1 fixed factor 2.92E-02 0.00001 500 l1_kh 1 0 1
pp_348_l1 fixed factor 2.99E-03 0.00001 500 l1_kh 1 0 1
pp_352_l1 fixed factor 0.3052529 0.00001 500 l1_kh 1 0 1
pp_355_l1 fixed factor 2.08E-03 0.00001 500 l1_kh 1 0 1
pp_358_l1 fixed factor 4.79E-02 0.00001 500 l1_kh 1 0 1
pp_366_l1 fixed factor 0.110918 0.00001 500 l1_kh 1 0 1
pp_370_l1 fixed factor 1.29E-03 0.00001 500 l1_kh 1 0 1
pp_372_l1 fixed factor 2.88E-02 0.00001 500 l1_kh 1 0 1
pp_374_l1 fixed factor 3.69E-02 0.00001 500 l1_kh 1 0 1
pp_376_l1 fixed factor 2.27E-02 0.00001 500 l1_kh 1 0 1
pp_377_l1 fixed factor 6.29E-02 0.00001 500 l1_kh 1 0 1
pp_378_l1 fixed factor 2.66E-02 0.00001 500 l1_kh 1 0 1
pp_379_l1 fixed factor 3.44E-03 0.00001 500 l1_kh 1 0 1
pp_380_l1 fixed factor 1.10E-03 0.00001 500 l1_kh 1 0 1
pp_381_l1 fixed factor 3.17E-02 0.00001 500 l1_kh 1 0 1
pp_382_l1 fixed factor 2.15E-02 0.00001 500 l1_kh 1 0 1
pp_383_l1 fixed factor 2.30E-02 0.00001 500 l1_kh 1 0 1
pp_384_l1 fixed factor 4.71E-02 0.00001 500 l1_kh 1 0 1
pp_387_l1 fixed factor 2.95E-02 0.00001 500 l1_kh 1 0 1
pp_388_l1 fixed factor 4.39E-02 0.00001 500 l1_kh 1 0 1
pp_389_l1 fixed factor 3.42E-02 0.00001 500 l1_kh 1 0 1
pp_390_l1 fixed factor 2.27E-02 0.00001 500 l1_kh 1 0 1
pp_392_l1 fixed factor 1.55E-02 0.00001 500 l1_kh 1 0 1
pp_394_l1 fixed factor 6.34E-04 0.00001 500 l1_kh 1 0 1
pp_396_l1 fixed factor 3.32E-02 0.00001 500 l1_kh 1 0 1
pp_397_l1 fixed factor 2.02E-02 0.00001 500 l1_kh 1 0 1
pp_398_l1 fixed factor 5.71E-02 0.00001 500 l1_kh 1 0 1
pp_399_l1 fixed factor 0.1296624 0.00001 500 l1_kh 1 0 1
pp_401_l1 fixed factor 3.25E-02 0.00001 500 l1_kh 1 0 1
pp_402_l1 fixed factor 1.74E-02 0.00001 500 l1_kh 1 0 1
pp_403_l1 fixed factor 0.1173574 0.00001 500 l1_kh 1 0 1
pp_404_l1 fixed factor 1.999885 0.00001 500 l1_kh 1 0 1
pp_406_l1 fixed factor 2.75E-02 0.00001 500 l1_kh 1 0 1
pp_407_l1 fixed factor 0.1879752 0.00001 500 l1_kh 1 0 1
pp_409_l1 fixed factor 2.34E-02 0.00001 500 l1_kh 1 0 1
pp_410_l1 fixed factor 3.06E-02 0.00001 500 l1_kh 1 0 1
pp_411_l1 fixed factor 8.86E-03 0.00001 500 l1_kh 1 0 1
pp_412_l1 fixed factor 3.05E-02 0.00001 500 l1_kh 1 0 1
pp_417_l1 fixed factor 2.04E-02 0.00001 500 l1_kh 1 0 1
pp_419_l1 fixed factor 1.12E-02 0.00001 500 l1_kh 1 0 1
pp_420_l1 fixed factor 4.55E-02 0.00001 500 l1_kh 1 0 1
pp_421_l1 fixed factor 3.71E-02 0.00001 500 l1_kh 1 0 1
pp_422_l1 fixed factor 2.60E-02 0.00001 500 l1_kh 1 0 1
pp_423_l1 fixed factor 1.82E-02 0.00001 500 l1_kh 1 0 1
pp_424_l1 fixed factor 1.80E-02 0.00001 500 l1_kh 1 0 1
pp_425_l1 fixed factor 3.17E-02 0.00001 500 l1_kh 1 0 1
pp_426_l1 fixed factor 0.1918116 0.00001 500 l1_kh 1 0 1
pp_428_l1 fixed factor 2.91E-02 0.00001 500 l1_kh 1 0 1
pp_429_l1 fixed factor 5.54E-02 0.00001 500 l1_kh 1 0 1
pp_430_l1 fixed factor 3.51E-02 0.00001 500 l1_kh 1 0 1
pp_432_l1 fixed factor 5.52E-02 0.00001 500 l1_kh 1 0 1
pp_433_l1 fixed factor 5.69E-02 0.00001 500 l1_kh 1 0 1
pp_434_l1 fixed factor 2.000003 0.00001 500 l1_kh 1 0 1
pp_435_l1 fixed factor 9.70E-02 0.00001 500 l1_kh 1 0 1
pp_436_l1 fixed factor 1.51E-02 0.00001 500 l1_kh 1 0 1
pp_438_l1 fixed factor 1.33E-02 0.00001 500 l1_kh 1 0 1
pp_442_l1 fixed factor 3.75E-02 0.00001 500 l1_kh 1 0 1
pp_444_l1 fixed factor 2.53E-02 0.00001 500 l1_kh 1 0 1
pp_445_l1 fixed factor 1.89E-02 0.00001 500 l1_kh 1 0 1
pp_446_l1 fixed factor 2.52E-02 0.00001 500 l1_kh 1 0 1
pp_447_l1 fixed factor 2.83E-02 0.00001 500 l1_kh 1 0 1
pp_448_l1 fixed factor 1.70E-02 0.00001 500 l1_kh 1 0 1
pp_450_l1 fixed factor 5.40E-02 0.00001 500 l1_kh 1 0 1
pp_455_l1 fixed factor 1.53E-02 0.00001 500 l1_kh 1 0 1
pp_456_l1 fixed factor 1.999991 0.00001 500 l1_kh 1 0 1
pp_458_l1 fixed factor 9.36E-02 0.00001 500 l1_kh 1 0 1
pp_459_l1 fixed factor 5.97E-02 0.00001 500 l1_kh 1 0 1
pp_460_l1 fixed factor 1.07E-02 0.00001 500 l1_kh 1 0 1
pp_461_l1 fixed factor 3.14E-02 0.00001 500 l1_kh 1 0 1
pp_462_l1 fixed factor 2.45E-02 0.00001 500 l1_kh 1 0 1
pp_463_l1 fixed factor 1.999978 0.00001 500 l1_kh 1 0 1
pp_464_l1 fixed factor 7.79E-03 0.00001 500 l1_kh 1 0 1
pp_466_l1 fixed factor 1.74E-02 0.00001 500 l1_kh 1 0 1
pp_468_l1 fixed factor 3.79E-02 0.00001 500 l1_kh 1 0 1
pp_471_l1 fixed factor 6.31E-02 0.00001 500 l1_kh 1 0 1
pp_472_l1 fixed factor 0.4392106 0.00001 500 l1_kh 1 0 1
pp_475_l1 fixed factor 2.03E-02 0.00001 500 l1_kh 1 0 1
pp_483_l1 fixed factor 3.92E-02 0.00001 500 l1_kh 1 0 1
pp_484_l1 fixed factor 5.61E-02 0.00001 500 l1_kh 1 0 1
pp_485_l1 fixed factor 2.000021 0.00001 500 l1_kh 1 0 1
pp_486_l1 fixed factor 2.000001 0.00001 500 l1_kh 1 0 1
pp_488_l1 fixed factor 7.62E-02 0.00001 500 l1_kh 1 0 1
pp_490_l1 fixed factor 3.13E-02 0.00001 500 l1_kh 1 0 1
pp_493_l1 fixed factor 2.39E-02 0.00001 500 l1_kh 1 0 1
pp_495_l1 fixed factor 9.56E-02 0.00001 500 l1_kh 1 0 1
pp_496_l1 fixed factor 5.96E-02 0.00001 500 l1_kh 1 0 1
pp_497_l1 fixed factor 0.1727788 0.00001 500 l1_kh 1 0 1
pp_498_l1 fixed factor 1.98E-02 0.00001 500 l1_kh 1 0 1
pp_500_l1 fixed factor 1.48E-02 0.00001 500 l1_kh 1 0 1
pp_502_l1 fixed factor 1.30E-02 0.00001 500 l1_kh 1 0 1
pp_504_l1 fixed factor 2.56E-02 0.00001 500 l1_kh 1 0 1
pp_506_l1 fixed factor 1.60E-02 0.00001 500 l1_kh 1 0 1
pp_510_l1 fixed factor 1.96E-02 0.00001 500 l1_kh 1 0 1
pp_511_l1 fixed factor 2.15E-02 0.00001 500 l1_kh 1 0 1
pp_512_l1 fixed factor 3.42E-02 0.00001 500 l1_kh 1 0 1
pp_513_l1 fixed factor 1.87E-02 0.00001 500 l1_kh 1 0 1
pp_515_l1 fixed factor 2.13E-02 0.00001 500 l1_kh 1 0 1
pp_517_l1 fixed factor 3.14E-02 0.00001 500 l1_kh 1 0 1
pp_518_l1 fixed factor 2.64E-02 0.00001 500 l1_kh 1 0 1
pp_519_l1 fixed factor 1.91E-02 0.00001 500 l1_kh 1 0 1
pp_521_l1 fixed factor 1.61E-02 0.00001 500 l1_kh 1 0 1
pp_522_l1 fixed factor 1.93E-02 0.00001 500 l1_kh 1 0 1
pp_523_l1 fixed factor 1.88E-02 0.00001 500 l1_kh 1 0 1
pp_524_l1 fixed factor 2.11E-02 0.00001 500 l1_kh 1 0 1
pp_526_l1 fixed factor 1.37E-02 0.00001 500 l1_kh 1 0 1
pp_529_l1 fixed factor 2.20E-02 0.00001 500 l1_kh 1 0 1
pp_530_l1 fixed factor 2.88E-02 0.00001 500 l1_kh 1 0 1
pp_531_l1 fixed factor 2.90E-02 0.00001 500 l1_kh 1 0 1
pp_538_l1 fixed factor 1.80E-02 0.00001 500 l1_kh 1 0 1
pp_543_l1 fixed factor 1.27E-02 0.00001 500 l1_kh 1 0 1
pp_550_l1 fixed factor 2.19E-02 0.00001 500 l1_kh 1 0 1
pp_551_l1 fixed factor 2.79E-02 0.00001 500 l1_kh 1 0 1
pp_552_l1 fixed factor 1.92E-02 0.00001 500 l1_kh 1 0 1
pp_554_l1 fixed factor 2.59E-02 0.00001 500 l1_kh 1 0 1
pp_555_l1 fixed factor 1.74E-02 0.00001 500 l1_kh 1 0 1
pp_556_l1 fixed factor 2.30E-02 0.00001 500 l1_kh 1 0 1
pp_557_l1 fixed factor 2.75E-02 0.00001 500 l1_kh 1 0 1
pp_558_l1 fixed factor 4.26E-02 0.00001 500 l1_kh 1 0 1
pp_565_l1 fixed factor 5.38E-02 0.00001 500 l1_kh 1 0 1
pp_566_l1 fixed factor 0.3423827 0.00001 500 l1_kh 1 0 1
pp_568_l1 fixed factor 2.28E-02 0.00001 500 l1_kh 1 0 1
pp_572_l1 fixed factor 2.18E-02 0.00001 500 l1_kh 1 0 1
pp_576_l1 fixed factor 2.34E-02 0.00001 500 l1_kh 1 0 1
pp_577_l1 fixed factor 2.21E-02 0.00001 500 l1_kh 1 0 1
pp_578_l1 fixed factor 1.23E-02 0.00001 500 l1_kh 1 0 1
pp_579_l1 fixed factor 8.85E-03 0.00001 500 l1_kh 1 0 1
pp_580_l1 fixed factor 1.77E-02 0.00001 500 l1_kh 1 0 1
pp_581_l1 fixed factor 3.05E-02 0.00001 500 l1_kh 1 0 1
pp_582_l1 fixed factor 5.32E-02 0.00001 500 l1_kh 1 0 1
pp_584_l1 fixed factor 5.86E-02 0.00001 500 l1_kh 1 0 1
pp_587_l1 fixed factor 2.11E-02 0.00001 500 l1_kh 1 0 1
pp_588_l1 fixed factor 2.50E-02 0.00001 500 l1_kh 1 0 1
pp_590_l1 fixed factor 9.55E-03 0.00001 500 l1_kh 1 0 1
pp_591_l1 fixed factor 1.03E-02 0.00001 500 l1_kh 1 0 1
pp_592_l1 fixed factor 3.20E-02 0.00001 500 l1_kh 1 0 1
pp_593_l1 fixed factor 5.72E-02 0.00001 500 l1_kh 1 0 1
pp_594_l1 fixed factor 4.20E-02 0.00001 500 l1_kh 1 0 1
pp_595_l1 fixed factor 2.63E-02 0.00001 500 l1_kh 1 0 1
pp_597_l1 fixed factor 1.72E-02 0.00001 500 l1_kh 1 0 1
pp_598_l1 fixed factor 1.55E-02 0.00001 500 l1_kh 1 0 1
pp_599_l1 fixed factor 1.95E-02 0.00001 500 l1_kh 1 0 1
pp_600_l1 fixed factor 1.02E-02 0.00001 500 l1_kh 1 0 1
pp_604_l1 fixed factor 0.2077748 0.00001 500 l1_kh 1 0 1
pp_605_l1 fixed factor 2.19E-02 0.00001 500 l1_kh 1 0 1
pp_607_l1 fixed factor 1.21E-02 0.00001 500 l1_kh 1 0 1
pp_609_l1 fixed factor 1.63E-02 0.00001 500 l1_kh 1 0 1
pp_610_l1 fixed factor 5.03E-02 0.00001 500 l1_kh 1 0 1
pp_611_l1 fixed factor 1.86E-02 0.00001 500 l1_kh 1 0 1
pp_612_l1 fixed factor 4.40E-02 0.00001 500 l1_kh 1 0 1
pp_613_l1 fixed factor 1.98E-02 0.00001 500 l1_kh 1 0 1
pp_617_l1 fixed factor 3.49E-02 0.00001 500 l1_kh 1 0 1
pp_627_l1 fixed factor 3.59E-02 0.00001 500 l1_kh 1 0 1
pp_628_l1 fixed factor 2.80E-02 0.00001 500 l1_kh 1 0 1
pp_630_l1 fixed factor 0.2829811 0.00001 500 l1_kh 1 0 1
pp_631_l1 fixed factor 2.57E-02 0.00001 500 l1_kh 1 0 1
pp_632_l1 fixed factor 1.44E-02 0.00001 500 l1_kh 1 0 1
pp_637_l1 fixed factor 2.29E-02 0.00001 500 l1_kh 1 0 1
pp_638_l1 fixed factor 1.97E-02 0.00001 500 l1_kh 1 0 1
pp_644_l1 fixed factor 5.04E-02 0.00001 500 l1_kh 1 0 1
pp_645_l1 fixed factor 1.66E-02 0.00001 500 l1_kh 1 0 1
pp_646_l1 fixed factor 3.98E-03 0.00001 500 l1_kh 1 0 1
pp_647_l1 fixed factor 2 0.00001 500 l1_kh 1 0 1
pp_648_l1 fixed factor 8.91E-03 0.00001 500 l1_kh 1 0 1
pp_650_l1 fixed factor 1.04E-02 0.00001 500 l1_kh 1 0 1
pp_651_l1 fixed factor 2.25E-02 0.00001 500 l1_kh 1 0 1
pp_652_l1 fixed factor 1.90E-02 0.00001 500 l1_kh 1 0 1
pp_653_l1 fixed factor 2.08E-02 0.00001 500 l1_kh 1 0 1
pp_656_l1 fixed factor 2.22E-02 0.00001 500 l1_kh 1 0 1
pp_657_l1 fixed factor 2.50E-02 0.00001 500 l1_kh 1 0 1
pp_658_l1 fixed factor 2.57E-02 0.00001 500 l1_kh 1 0 1
pp_659_l1 fixed factor 8.34E-02 0.00001 500 l1_kh 1 0 1
pp_661_l1 fixed factor 1.62E-02 0.00001 500 l1_kh 1 0 1
pp_663_l1 fixed factor 2.24E-02 0.00001 500 l1_kh 1 0 1
pp_665_l1 fixed factor 1.76E-02 0.00001 500 l1_kh 1 0 1
pp_666_l1 fixed factor 1.61E-02 0.00001 500 l1_kh 1 0 1
pp_667_l1 fixed factor 1.89E-02 0.00001 500 l1_kh 1 0 1
pp_668_l1 fixed factor 1.83E-02 0.00001 500 l1_kh 1 0 1
pp_675_l1 fixed factor 1.205681 0.00001 500 l1_kh 1 0 1
pp_678_l1 fixed factor 2.00E-02 0.00001 500 l1_kh 1 0 1
pp_684_l1 fixed factor 2.94E-03 0.00001 500 l1_kh 1 0 1
pp_689_l1 fixed factor 0.1194615 0.00001 500 l1_kh 1 0 1
pp_692_l1 fixed factor 2.71E-04 0.00001 500 l1_kh 1 0 1
pp_1_l1 fixed factor 2.00E-02 0.00001 500 l1_kh 1 0 1
pp_2_l1 fixed factor 2.00E-02 0.00001 500 l1_kh 1 0 1
pp_5_l1 fixed factor 2.00E-02 0.00001 500 l1_kh 1 0 1
pp_6_l1 fixed factor 2.00E-02 0.00001 500 l1_kh 1 0 1
pp_7_l1 fixed factor 2.00E-02 0.00001 500 l1_kh 1 0 1
pp_8_l1 fixed factor 2.00E-02 0.00001 500 l1_kh 1 0 1
pp_11_l1 fixed factor 2.00E-02 0.00001 500 l1_kh 1 0 1
pp_13_l1 fixed factor 2.00E-02 0.00001 500 l1_kh 1 0 1
pp_14_l1 fixed factor 2.00E-02 0.00001 500 l1_kh 1 0 1
pp_15_l1 fixed factor 2.00E-02 0.00001 500 l1_kh 1 0 1
pp_19_l1 fixed factor 2.00E-02 0.00001 500 l1_kh 1 0 1
pp_20_l1 fixed factor 2.00E-02 0.00001 500 l1_kh 1 0 1
pp_21_l1 fixed factor 2.00E-02 0.00001 500 l1_kh 1 0 1
pp_22_l1 fixed factor 2.00E-02 0.00001 500 l1_kh 1 0 1
pp_25_l1 fixed factor 2.00E-02 0.00001 500 l1_kh 1 0 1
pp_28_l1 fixed factor 2.00E-02 0.00001 500 l1_kh 1 0 1
pp_31_l1 fixed factor 2.00E-02 0.00001 500 l1_kh 1 0 1
pp_32_l1 fixed factor 2.00E-02 0.00001 500 l1_kh 1 0 1
pp_33_l1 fixed factor 2.00E-02 0.00001 500 l1_kh 1 0 1
pp_37_l1 fixed factor 2.00E-02 0.00001 500 l1_kh 1 0 1
pp_38_l1 fixed factor 2.00E-02 0.00001 500 l1_kh 1 0 1
pp_40_l1 fixed factor 2.00E-02 0.00001 500 l1_kh 1 0 1
pp_43_l1 fixed factor 2.00E-02 0.00001 500 l1_kh 1 0 1
pp_44_l1 fixed factor 2.00E-02 0.00001 500 l1_kh 1 0 1
pp_46_l1 fixed factor 2.00E-02 0.00001 500 l1_kh 1 0 1
pp_48_l1 fixed factor 2.00E-02 0.00001 500 l1_kh 1 0 1
pp_49_l1 fixed factor 2.00E-02 0.00001 500 l1_kh 1 0 1
pp_52_l1 fixed factor 2.00E-02 0.00001 500 l1_kh 1 0 1
pp_53_l1 fixed factor 2.00E-02 0.00001 500 l1_kh 1 0 1
pp_55_l1 fixed factor 2.00E-02 0.00001 500 l1_kh 1 0 1
pp_57_l1 fixed factor 2.00E-02 0.00001 500 l1_kh 1 0 1
pp_59_l1 fixed factor 2.00E-02 0.00001 500 l1_kh 1 0 1
pp_60_l1 fixed factor 2.00E-02 0.00001 500 l1_kh 1 0 1
pp_62_l1 fixed factor 2.00E-02 0.00001 500 l1_kh 1 0 1
pp_64_l1 fixed factor 2.00E-02 0.00001 500 l1_kh 1 0 1
pp_65_l1 fixed factor 2.00E-02 0.00001 500 l1_kh 1 0 1
pp_66_l1 fixed factor 2.00E-02 0.00001 500 l1_kh 1 0 1
pp_67_l1 fixed factor 2.00E-02 0.00001 500 l1_kh 1 0 1
pp_69_l1 fixed factor 2.00E-02 0.00001 500 l1_kh 1 0 1
pp_70_l1 fixed factor 2.00E-02 0.00001 500 l1_kh 1 0 1
pp_72_l1 fixed factor 2.00E-02 0.00001 500 l1_kh 1 0 1
pp_73_l1 fixed factor 2.00E-02 0.00001 500 l1_kh 1 0 1
pp_74_l1 fixed factor 2.00E-02 0.00001 500 l1_kh 1 0 1
pp_75_l1 fixed factor 2.00E-02 0.00001 500 l1_kh 1 0 1
pp_76_l1 fixed factor 2.00E-02 0.00001 500 l1_kh 1 0 1
pp_79_l1 fixed factor 2.00E-02 0.00001 500 l1_kh 1 0 1
pp_80_l1 fixed factor 2.00E-02 0.00001 500 l1_kh 1 0 1
pp_81_l1 fixed factor 2.00E-02 0.00001 500 l1_kh 1 0 1
pp_83_l1 fixed factor 2.00E-02 0.00001 500 l1_kh 1 0 1
pp_84_l1 fixed factor 2.00E-02 0.00001 500 l1_kh 1 0 1
pp_85_l1 fixed factor 2.00E-02 0.00001 500 l1_kh 1 0 1
pp_86_l1 fixed factor 2.00E-02 0.00001 500 l1_kh 1 0 1
pp_87_l1 fixed factor 2.00E-02 0.00001 500 l1_kh 1 0 1
pp_89_l1 fixed factor 2.00E-02 0.00001 500 l1_kh 1 0 1
pp_92_l1 fixed factor 2.00E-02 0.00001 500 l1_kh 1 0 1
pp_97_l1 fixed factor 2.00E-02 0.00001 500 l1_kh 1 0 1
pp_100_l1 fixed factor 2.00E-02 0.00001 500 l1_kh 1 0 1
pp_102_l1 fixed factor 2.00E-02 0.00001 500 l1_kh 1 0 1
pp_104_l1 fixed factor 2.00E-02 0.00001 500 l1_kh 1 0 1
pp_106_l1 fixed factor 2.00E-02 0.00001 500 l1_kh 1 0 1
pp_109_l1 fixed factor 2.00E-02 0.00001 500 l1_kh 1 0 1
pp_111_l1 fixed factor 2.00E-02 0.00001 500 l1_kh 1 0 1
pp_112_l1 fixed factor 2.00E-02 0.00001 500 l1_kh 1 0 1
pp_113_l1 fixed factor 2.00E-02 0.00001 500 l1_kh 1 0 1
pp_115_l1 fixed factor 2.00E-02 0.00001 500 l1_kh 1 0 1
pp_116_l1 fixed factor 2.00E-02 0.00001 500 l1_kh 1 0 1
pp_118_l1 fixed factor 2.00E-02 0.00001 500 l1_kh 1 0 1
pp_120_l1 fixed factor 2.00E-02 0.00001 500 l1_kh 1 0 1
pp_121_l1 fixed factor 2.00E-02 0.00001 500 l1_kh 1 0 1
pp_123_l1 fixed factor 2.00E-02 0.00001 500 l1_kh 1 0 1
pp_124_l1 fixed factor 2.00E-02 0.00001 500 l1_kh 1 0 1
pp_130_l1 fixed factor 2.00E-02 0.00001 500 l1_kh 1 0 1
pp_131_l1 fixed factor 2.00E-02 0.00001 500 l1_kh 1 0 1
pp_132_l1 fixed factor 2.00E-02 0.00001 500 l1_kh 1 0 1
pp_133_l1 fixed factor 2.00E-02 0.00001 500 l1_kh 1 0 1
pp_134_l1 fixed factor 2.00E-02 0.00001 500 l1_kh 1 0 1
pp_136_l1 fixed factor 2.00E-02 0.00001 500 l1_kh 1 0 1
pp_137_l1 fixed factor 2.00E-02 0.00001 500 l1_kh 1 0 1
pp_138_l1 fixed factor 2.00E-02 0.00001 500 l1_kh 1 0 1
pp_139_l1 fixed factor 2.00E-02 0.00001 500 l1_kh 1 0 1
pp_140_l1 fixed factor 2.00E-02 0.00001 500 l1_kh 1 0 1
pp_141_l1 fixed factor 2.00E-02 0.00001 500 l1_kh 1 0 1
pp_143_l1 fixed factor 2.00E-02 0.00001 500 l1_kh 1 0 1
pp_144_l1 fixed factor 2.00E-02 0.00001 500 l1_kh 1 0 1
pp_146_l1 fixed factor 2.00E-02 0.00001 500 l1_kh 1 0 1
pp_147_l1 fixed factor 2.00E-02 0.00001 500 l1_kh 1 0 1
pp_149_l1 fixed factor 2.00E-02 0.00001 500 l1_kh 1 0 1
pp_150_l1 fixed factor 2.00E-02 0.00001 500 l1_kh 1 0 1
pp_151_l1 fixed factor 2.00E-02 0.00001 500 l1_kh 1 0 1
pp_154_l1 fixed factor 2.00E-02 0.00001 500 l1_kh 1 0 1
pp_156_l1 fixed factor 2.00E-02 0.00001 500 l1_kh 1 0 1
pp_157_l1 fixed factor 2.00E-02 0.00001 500 l1_kh 1 0 1
pp_158_l1 fixed factor 2.00E-02 0.00001 500 l1_kh 1 0 1
pp_161_l1 fixed factor 2.00E-02 0.00001 500 l1_kh 1 0 1
pp_162_l1 fixed factor 2.00E-02 0.00001 500 l1_kh 1 0 1
pp_163_l1 fixed factor 2.00E-02 0.00001 500 l1_kh 1 0 1
pp_165_l1 fixed factor 2.00E-02 0.00001 500 l1_kh 1 0 1
pp_169_l1 fixed factor 2.00E-02 0.00001 500 l1_kh 1 0 1
pp_171_l1 fixed factor 2.00E-02 0.00001 500 l1_kh 1 0 1
pp_172_l1 fixed factor 2.00E-02 0.00001 500 l1_kh 1 0 1
pp_173_l1 fixed factor 2.00E-02 0.00001 500 l1_kh 1 0 1