pcf
* control data
restart estimation
   4932  11785     15      0       7
     10     15 single  point   1   0   0
  5.0  -3.0   0.3  0.03    10
 15.0  15.0 0.001  0
  0.1
    0  0.01     3     3  0.01     3
    1     1     1
* singular value decomposition
         1
      1000     1E-07
         0
* parameter groups
prms           relative   0.020  0.0   switch  2.0   parabolic
uzf            relative   0.020  0.0   switch  2.0   parabolic
StrmBed        relative   0.020  0.0   switch  2.0   parabolic
L1_Kh          relative   0.020  0.0   switch  2.0   parabolic
L2_Kh_Zn2      relative   0.020  0.0   switch  2.0   parabolic
L2_Kh_Zn3      relative   0.020  0.0   switch  2.0   parabolic
L2_Kh_Zn4      relative   0.020  0.0   switch  2.0   parabolic
L2_Kh_Zn5      relative   0.020  0.0   switch  2.0   parabolic
L2_Kh_Zn6      relative   0.020  0.0   switch  2.0   parabolic
L2_Kh_Zn7      relative   0.020  0.0   switch  2.0   parabolic
L2_Kh_Zn8      relative   0.020  0.0   switch  2.0   parabolic
L2_Kh_Zn9      relative   0.020  0.0   switch  2.0   parabolic
L3_Kh_Zn10     relative   0.020  0.0   switch  2.0   parabolic
L1_SY          relative   0.020  0.0   switch  2.0   parabolic
L2_SY          relative   0.020  0.0   switch  2.0   parabolic
* parameter data
ssr2gw_scale     log   factor   1.0000000      0.00010   20.000     prms       1.0000    0.0000   1
vks2ssr2_rat   fixed   factor    2.000000      2.00000     10.0     prms       1.0000    0.0000   1
finf           fixed   factor   0.3922368      0.10000    1.000      uzf       1.0000    0.0000   1
extdp          fixed   factor   0.4078737      0.10000    1.000      uzf       1.0000    0.0000   1
pet            fixed   factor   0.5523764      0.50000    1.200      uzf       1.0000    0.0000   1
srfk_mult      fixed   factor   2.3555488E-02  0.000100    10.0      uzf       1.0000    0.0000   1
strmbdk_1      fixed   factor   0.1995987      0.00001    500.0       strmbed  1.0000    0.0000   1
strmbdk_2      fixed   factor   0.2549354      0.00001    500.0       strmbed  1.0000    0.0000   1
strmbdk_3      fixed   factor   0.2507592      0.00001    500.0       strmbed  1.0000    0.0000   1
strmbdk_4      fixed   factor   0.2382607      0.00001    500.0       strmbed  1.0000    0.0000   1
strmbdk_5      fixed   factor   0.2496131      0.00001    500.0       strmbed  1.0000    0.0000   1
strmbdk_6      fixed   factor   0.2577957      0.00001    500.0       strmbed  1.0000    0.0000   1
strmbdk_7      fixed   factor   0.2643207      0.00001    500.0       strmbed  1.0000    0.0000   1
strmbdk_8      fixed   factor   0.2620696      0.00001    500.0       strmbed  1.0000    0.0000   1
strmbdk_9      fixed   factor   0.2500741      0.00001    500.0       strmbed  1.0000    0.0000   1
strmbdk_10     fixed   factor   0.7965903      0.00001    500.0       strmbed  1.0000    0.0000   1
strmbdk_11     fixed   factor   6.1776079E-03  0.00001    500.0       strmbed  1.0000    0.0000   1
strmbdk_24     fixed   factor   1.1781224E-02  0.00001    500.0       strmbed  1.0000    0.0000   1
strmbdk_12     fixed   factor   0.2513664      0.00001    500.0       strmbed  1.0000    0.0000   1
strmbdk_13     fixed   factor   0.2492947      0.00001    500.0       strmbed  1.0000    0.0000   1
strmbdk_14     fixed   factor   0.4511817      0.00001    500.0       strmbed  1.0000    0.0000   1
strmbdk_15     fixed   factor   0.2875866      0.00001    500.0       strmbed  1.0000    0.0000   1
strmbdk_16     fixed   factor   0.1300607      0.00001    500.0       strmbed  1.0000    0.0000   1
strmbdk_17     fixed   factor   0.2503112      0.00001    500.0       strmbed  1.0000    0.0000   1
strmbdk_18     fixed   factor   0.2633615      0.00001    500.0       strmbed  1.0000    0.0000   1
strmbdk_19     fixed   factor   0.2371227      0.00001    500.0       strmbed  1.0000    0.0000   1
strmbdk_20     fixed   factor   9.9756616E-03  0.00001    500.0       strmbed  1.0000    0.0000   1
strmbdk_21     fixed   factor   0.3604539      0.00001    500.0       strmbed  1.0000    0.0000   1
strmbdk_22     fixed   factor   6.2613084E-02  0.00001    500.0       strmbed  1.0000    0.0000   1
strmbdk_23     fixed   factor   0.2274404      0.00001    500.0       strmbed  1.0000    0.0000   1
strmbdk_25     fixed   factor   3.3991941E-02  0.00001    500.0       strmbed  1.0000    0.0000   1
strmbdk_26     fixed   factor   8.3507720E-02  0.00001    500.0       strmbed  1.0000    0.0000   1
strmbdk_27     fixed   factor   1.3694870E-02  0.00001    500.0       strmbed  1.0000    0.0000   1
strmbdk_28     fixed   factor   4.4563843E-03  0.00001    500.0       strmbed  1.0000    0.0000   1
strmbdk_29     fixed   factor   2.4251040E-02  0.00001    500.0       strmbed  1.0000    0.0000   1
strmbdk_30     fixed   factor   0.7755277      0.00001    500.0       strmbed  1.0000    0.0000   1
strmbdk_31     fixed   factor   2.6218568E-04  0.00001    500.0       strmbed  1.0000    0.0000   1
strmbdk_32     fixed   factor   0.2295657      0.00001    500.0       strmbed  1.0000    0.0000   1
strmbdk_33     fixed   factor   0.1464528      0.00001    500.0       strmbed  1.0000    0.0000   1
strmbdk_34     fixed   factor   2.6543406E-02  0.00001    500.0       strmbed  1.0000    0.0000   1
strmbdk_35     fixed   factor   0.1811448      0.00001    500.0       strmbed  1.0000    0.0000   1
strmbdk_36     fixed   factor   0.2299396      0.00001    500.0       strmbed  1.0000    0.0000   1
strmbdk_37     fixed   factor   3.7912202E-02  0.00001    500.0       strmbed  1.0000    0.0000   1
strmbdk_38     fixed   factor   0.2337853      0.00001    500.0       strmbed  1.0000    0.0000   1
strmbdk_39     fixed   factor   3.6890249E-04  0.00001    500.0       strmbed  1.0000    0.0000   1
kh_lay_1       fixed   factor    1.041357      0.00010    1000.    l1_kh       1.0000    0.0000   1
pp_3_l1        fixed   factor    1.008937      0.00001    500.0    l1_kh       1.0000    0.0000   1
pp_4_l1        fixed   factor   0.1372281      0.00001    500.0    l1_kh       1.0000    0.0000   1
pp_9_l1        fixed   factor   3.2815992E-02  0.00001    500.0    l1_kh       1.0000    0.0000   1
pp_10_l1       fixed   factor    10.36890      0.00001    500.0    l1_kh       1.0000    0.0000   1
pp_12_l1       fixed   factor   0.1067009      0.00001    500.0    l1_kh       1.0000    0.0000   1
pp_16_l1       fixed   factor   0.3135310      0.00001    500.0    l1_kh       1.0000    0.0000   1
pp_17_l1       fixed   factor   3.7546299E-02  0.00001    500.0    l1_kh       1.0000    0.0000   1
pp_18_l1       fixed   factor   0.1362721      0.00001    500.0    l1_kh       1.0000    0.0000   1
pp_23_l1       fixed   factor    44.00896      0.00001    500.0    l1_kh       1.0000    0.0000   1
pp_24_l1       fixed   factor    14.20901      0.00001    500.0    l1_kh       1.0000    0.0000   1
pp_26_l1       fixed   factor   0.1864728      0.00001    500.0    l1_kh       1.0000    0.0000   1
pp_27_l1       fixed   factor   0.2916644      0.00001    500.0    l1_kh       1.0000    0.0000   1
pp_29_l1       fixed   factor    14.93799      0.00001    500.0    l1_kh       1.0000    0.0000   1
pp_30_l1       fixed   factor   0.1461904      0.00001    500.0    l1_kh       1.0000    0.0000   1
pp_34_l1       fixed   factor   9.5459738E-02  0.00001    500.0    l1_kh       1.0000    0.0000   1
pp_35_l1       fixed   factor   8.7981989E-02  0.00001    500.0    l1_kh       1.0000    0.0000   1
pp_36_l1       fixed   factor    10.64122      0.00001    500.0    l1_kh       1.0000    0.0000   1
pp_39_l1       fixed   factor   0.6569990      0.00001    500.0    l1_kh       1.0000    0.0000   1
pp_41_l1       fixed   factor    2.933545      0.00001    500.0    l1_kh       1.0000    0.0000   1
pp_42_l1       fixed   factor    10.07845      0.00001    500.0    l1_kh       1.0000    0.0000   1
pp_45_l1       fixed   factor   3.1829738E-02  0.00001    500.0    l1_kh       1.0000    0.0000   1
pp_47_l1       fixed   factor   0.2333231      0.00001    500.0    l1_kh       1.0000    0.0000   1
pp_50_l1       fixed   factor   0.3889214      0.00001    500.0    l1_kh       1.0000    0.0000   1
pp_51_l1       fixed   factor   7.0605019E-02  0.00001    500.0    l1_kh       1.0000    0.0000   1
pp_54_l1       fixed   factor   0.5808771      0.00001    500.0    l1_kh       1.0000    0.0000   1
pp_56_l1       fixed   factor   6.9687705E-02  0.00001    500.0    l1_kh       1.0000    0.0000   1
pp_58_l1       fixed   factor   0.2624038      0.00001    500.0    l1_kh       1.0000    0.0000   1
pp_61_l1       fixed   factor   0.1564416      0.00001    500.0    l1_kh       1.0000    0.0000   1
pp_63_l1       fixed   factor   0.2068105      0.00001    500.0    l1_kh       1.0000    0.0000   1
pp_68_l1       fixed   factor   6.9221001E-02  0.00001    500.0    l1_kh       1.0000    0.0000   1
pp_71_l1       fixed   factor   0.2638677      0.00001    500.0    l1_kh       1.0000    0.0000   1
pp_77_l1       fixed   factor   6.5056849E-02  0.00001    500.0    l1_kh       1.0000    0.0000   1
pp_78_l1       fixed   factor   0.1258964      0.00001    500.0    l1_kh       1.0000    0.0000   1
pp_82_l1       fixed   factor   0.5752892      0.00001    500.0    l1_kh       1.0000    0.0000   1
pp_88_l1       fixed   factor   0.1087735      0.00001    500.0    l1_kh       1.0000    0.0000   1
pp_90_l1       fixed   factor   0.1263450      0.00001    500.0    l1_kh       1.0000    0.0000   1
pp_91_l1       fixed   factor   0.1827627      0.00001    500.0    l1_kh       1.0000    0.0000   1
pp_93_l1       fixed   factor   0.1604151      0.00001    500.0    l1_kh       1.0000    0.0000   1
pp_94_l1       fixed   factor   0.1068684      0.00001    500.0    l1_kh       1.0000    0.0000   1
pp_95_l1       fixed   factor   9.3853738E-02  0.00001    500.0    l1_kh       1.0000    0.0000   1
pp_96_l1       fixed   factor   0.4046961      0.00001    500.0    l1_kh       1.0000    0.0000   1
pp_98_l1       fixed   factor   0.1779154      0.00001    500.0    l1_kh       1.0000    0.0000   1
pp_99_l1       fixed   factor   0.1519186      0.00001    500.0    l1_kh       1.0000    0.0000   1
pp_101_l1      fixed   factor   0.2450771      0.00001    500.0    l1_kh       1.0000    0.0000   1
pp_103_l1      fixed   factor   0.1600202      0.00001    500.0    l1_kh       1.0000    0.0000   1
pp_105_l1      fixed   factor   8.4893485E-02  0.00001    500.0    l1_kh       1.0000    0.0000   1
pp_107_l1      fixed   factor   0.1451663      0.00001    500.0    l1_kh       1.0000    0.0000   1
pp_108_l1      fixed   factor   3.3624084E-03  0.00001    500.0    l1_kh       1.0000    0.0000   1
pp_110_l1      fixed   factor   0.1058852      0.00001    500.0    l1_kh       1.0000    0.0000   1
pp_114_l1      fixed   factor   0.1316578      0.00001    500.0    l1_kh       1.0000    0.0000   1
pp_117_l1      fixed   factor   8.2786111E-02  0.00001    500.0    l1_kh       1.0000    0.0000   1
pp_119_l1      fixed   factor   9.2822763E-02  0.00001    500.0    l1_kh       1.0000    0.0000   1
pp_122_l1      fixed   factor   0.1117300      0.00001    500.0    l1_kh       1.0000    0.0000   1
pp_125_l1      fixed   factor   4.1936692E-02  0.00001    500.0    l1_kh       1.0000    0.0000   1
pp_126_l1      fixed   factor   9.1605794E-02  0.00001    500.0    l1_kh       1.0000    0.0000   1
pp_127_l1      fixed   factor   9.7399694E-02  0.00001    500.0    l1_kh       1.0000    0.0000   1
pp_128_l1      fixed   factor   7.2425338E-02  0.00001    500.0    l1_kh       1.0000    0.0000   1
pp_129_l1      fixed   factor   4.3938161E-02  0.00001    500.0    l1_kh       1.0000    0.0000   1
pp_135_l1      fixed   factor   0.4748227      0.00001    500.0    l1_kh       1.0000    0.0000   1
pp_142_l1      fixed   factor   7.9050431E-02  0.00001    500.0    l1_kh       1.0000    0.0000   1
pp_145_l1      fixed   factor   6.2027442E-02  0.00001    500.0    l1_kh       1.0000    0.0000   1
pp_148_l1      fixed   factor   7.4855803E-02  0.00001    500.0    l1_kh       1.0000    0.0000   1
pp_152_l1      fixed   factor   8.5437283E-02  0.00001    500.0    l1_kh       1.0000    0.0000   1
pp_153_l1      fixed   factor   0.1062378      0.00001    500.0    l1_kh       1.0000    0.0000   1
pp_155_l1      fixed   factor   0.1072377      0.00001    500.0    l1_kh       1.0000    0.0000   1
pp_159_l1      fixed   factor   9.1958714E-02  0.00001    500.0    l1_kh       1.0000    0.0000   1
pp_160_l1      fixed   factor   9.4350430E-02  0.00001    500.0    l1_kh       1.0000    0.0000   1
pp_164_l1      fixed   factor   0.1043924      0.00001    500.0    l1_kh       1.0000    0.0000   1
pp_166_l1      fixed   factor   0.1064165      0.00001    500.0    l1_kh       1.0000    0.0000   1
pp_167_l1      fixed   factor   0.1136743      0.00001    500.0    l1_kh       1.0000    0.0000   1
pp_168_l1      fixed   factor   0.1309134      0.00001    500.0    l1_kh       1.0000    0.0000   1
pp_170_l1      fixed   factor   0.1261246      0.00001    500.0    l1_kh       1.0000    0.0000   1
pp_174_l1      fixed   factor   9.6770278E-02  0.00001    500.0    l1_kh       1.0000    0.0000   1
pp_179_l1      fixed   factor   0.1051975      0.00001    500.0    l1_kh       1.0000    0.0000   1
pp_182_l1      fixed   factor   0.1581881      0.00001    500.0    l1_kh       1.0000    0.0000   1
pp_187_l1      fixed   factor   0.1294814      0.00001    500.0    l1_kh       1.0000    0.0000   1
pp_189_l1      fixed   factor   0.1133169      0.00001    500.0    l1_kh       1.0000    0.0000   1
pp_190_l1      fixed   factor   9.1717133E-02  0.00001    500.0    l1_kh       1.0000    0.0000   1
pp_191_l1      fixed   factor   7.7280856E-02  0.00001    500.0    l1_kh       1.0000    0.0000   1
pp_193_l1      fixed   factor   0.1091728      0.00001    500.0    l1_kh       1.0000    0.0000   1
pp_198_l1      fixed   factor   0.2384258      0.00001    500.0    l1_kh       1.0000    0.0000   1
pp_200_l1      fixed   factor   2.4528508E-02  0.00001    500.0    l1_kh       1.0000    0.0000   1
pp_201_l1      fixed   factor   9.6539944E-02  0.00001    500.0    l1_kh       1.0000    0.0000   1
pp_202_l1      fixed   factor   8.0954085E-02  0.00001    500.0    l1_kh       1.0000    0.0000   1
pp_205_l1      fixed   factor   0.1033921      0.00001    500.0    l1_kh       1.0000    0.0000   1
pp_206_l1      fixed   factor   0.1087355      0.00001    500.0    l1_kh       1.0000    0.0000   1
pp_207_l1      fixed   factor   9.9589881E-02  0.00001    500.0    l1_kh       1.0000    0.0000   1
pp_208_l1      fixed   factor   9.8318463E-02  0.00001    500.0    l1_kh       1.0000    0.0000   1
pp_209_l1      fixed   factor   7.3871247E-02  0.00001    500.0    l1_kh       1.0000    0.0000   1
pp_210_l1      fixed   factor   0.1044826      0.00001    500.0    l1_kh       1.0000    0.0000   1
pp_212_l1      fixed   factor   0.1257017      0.00001    500.0    l1_kh       1.0000    0.0000   1
pp_214_l1      fixed   factor   0.1011535      0.00001    500.0    l1_kh       1.0000    0.0000   1
pp_215_l1      fixed   factor   0.1052688      0.00001    500.0    l1_kh       1.0000    0.0000   1
pp_216_l1      fixed   factor   0.1661193      0.00001    500.0    l1_kh       1.0000    0.0000   1
pp_217_l1      fixed   factor   9.8514780E-02  0.00001    500.0    l1_kh       1.0000    0.0000   1
pp_218_l1      fixed   factor   0.1008582      0.00001    500.0    l1_kh       1.0000    0.0000   1
pp_219_l1      fixed   factor   0.1115238      0.00001    500.0    l1_kh       1.0000    0.0000   1
pp_222_l1      fixed   factor   8.2823569E-02  0.00001    500.0    l1_kh       1.0000    0.0000   1
pp_224_l1      fixed   factor   0.1210578      0.00001    500.0    l1_kh       1.0000    0.0000   1
pp_225_l1      fixed   factor   0.1041713      0.00001    500.0    l1_kh       1.0000    0.0000   1
pp_226_l1      fixed   factor   9.6566718E-02  0.00001    500.0    l1_kh       1.0000    0.0000   1
pp_227_l1      fixed   factor   0.1183063      0.00001    500.0    l1_kh       1.0000    0.0000   1
pp_229_l1      fixed   factor   0.2272391      0.00001    500.0    l1_kh       1.0000    0.0000   1
pp_233_l1      fixed   factor   0.1136762      0.00001    500.0    l1_kh       1.0000    0.0000   1
pp_235_l1      fixed   factor   0.1273496      0.00001    500.0    l1_kh       1.0000    0.0000   1
pp_236_l1      fixed   factor   0.8685780      0.00001    500.0    l1_kh       1.0000    0.0000   1
pp_237_l1      fixed   factor   0.8954359      0.00001    500.0    l1_kh       1.0000    0.0000   1
pp_241_l1      fixed   factor   0.1882575      0.00001    500.0    l1_kh       1.0000    0.0000   1
pp_242_l1      fixed   factor   3.3725242E-02  0.00001    500.0    l1_kh       1.0000    0.0000   1
pp_243_l1      fixed   factor   6.6758743E-02  0.00001    500.0    l1_kh       1.0000    0.0000   1
pp_245_l1      fixed   factor   7.7304916E-02  0.00001    500.0    l1_kh       1.0000    0.0000   1
pp_246_l1      fixed   factor   4.8460199E-02  0.00001    500.0    l1_kh       1.0000    0.0000   1
pp_247_l1      fixed   factor   1.3832229E-02  0.00001    500.0    l1_kh       1.0000    0.0000   1
pp_251_l1      fixed   factor   0.1235645      0.00001    500.0    l1_kh       1.0000    0.0000   1
pp_252_l1      fixed   factor   8.3695313E-02  0.00001    500.0    l1_kh       1.0000    0.0000   1
pp_253_l1      fixed   factor   0.2146112      0.00001    500.0    l1_kh       1.0000    0.0000   1
pp_254_l1      fixed   factor   0.3202943      0.00001    500.0    l1_kh       1.0000    0.0000   1
pp_255_l1      fixed   factor   0.1107424      0.00001    500.0    l1_kh       1.0000    0.0000   1
pp_257_l1      fixed   factor   0.1932546      0.00001    500.0    l1_kh       1.0000    0.0000   1
pp_258_l1      fixed   factor   0.2150978      0.00001    500.0    l1_kh       1.0000    0.0000   1
pp_259_l1      fixed   factor   0.5347851      0.00001    500.0    l1_kh       1.0000    0.0000   1
pp_260_l1      fixed   factor   0.2144828      0.00001    500.0    l1_kh       1.0000    0.0000   1
pp_264_l1      fixed   factor   3.1815524E-02  0.00001    500.0    l1_kh       1.0000    0.0000   1
pp_269_l1      fixed   factor   0.1245356      0.00001    500.0    l1_kh       1.0000    0.0000   1
pp_272_l1      fixed   factor   3.9823341E-02  0.00001    500.0    l1_kh       1.0000    0.0000   1
pp_273_l1      fixed   factor   0.5454930      0.00001    500.0    l1_kh       1.0000    0.0000   1
pp_277_l1      fixed   factor   0.1394190      0.00001    500.0    l1_kh       1.0000    0.0000   1
pp_278_l1      fixed   factor   0.1095205      0.00001    500.0    l1_kh       1.0000    0.0000   1
pp_282_l1      fixed   factor   6.4115514E-02  0.00001    500.0    l1_kh       1.0000    0.0000   1
pp_286_l1      fixed   factor   6.9410548E-02  0.00001    500.0    l1_kh       1.0000    0.0000   1
pp_290_l1      fixed   factor   9.2537364E-02  0.00001    500.0    l1_kh       1.0000    0.0000   1
pp_291_l1      fixed   factor   4.3323712E-02  0.00001    500.0    l1_kh       1.0000    0.0000   1
pp_294_l1      fixed   factor   4.9292700E-02  0.00001    500.0    l1_kh       1.0000    0.0000   1
pp_295_l1      fixed   factor   0.4357575      0.00001    500.0    l1_kh       1.0000    0.0000   1
pp_296_l1      fixed   factor   0.1256272      0.00001    500.0    l1_kh       1.0000    0.0000   1
pp_302_l1      fixed   factor   0.6110718      0.00001    500.0    l1_kh       1.0000    0.0000   1
pp_303_l1      fixed   factor   8.4935733E-02  0.00001    500.0    l1_kh       1.0000    0.0000   1
pp_306_l1      fixed   factor   0.2115740      0.00001    500.0    l1_kh       1.0000    0.0000   1
pp_307_l1      fixed   factor   0.2060679      0.00001    500.0    l1_kh       1.0000    0.0000   1
pp_309_l1      fixed   factor   2.3510262E-02  0.00001    500.0    l1_kh       1.0000    0.0000   1
pp_313_l1      fixed   factor   8.1164662E-02  0.00001    500.0    l1_kh       1.0000    0.0000   1
pp_318_l1      fixed   factor   0.3020367      0.00001    500.0    l1_kh       1.0000    0.0000   1
pp_321_l1      fixed   factor   0.1575214      0.00001    500.0    l1_kh       1.0000    0.0000   1
pp_323_l1      fixed   factor   4.3932423E-02  0.00001    500.0    l1_kh       1.0000    0.0000   1
pp_324_l1      fixed   factor   0.1446067      0.00001    500.0    l1_kh       1.0000    0.0000   1
pp_325_l1      fixed   factor   3.1452373E-02  0.00001    500.0    l1_kh       1.0000    0.0000   1
pp_330_l1      fixed   factor   0.1587945      0.00001    500.0    l1_kh       1.0000    0.0000   1
pp_340_l1      fixed   factor   0.1397799      0.00001    500.0    l1_kh       1.0000    0.0000   1
pp_342_l1      fixed   factor   8.2892378E-02  0.00001    500.0    l1_kh       1.0000    0.0000   1
pp_344_l1      fixed   factor   0.1033030      0.00001    500.0    l1_kh       1.0000    0.0000   1
pp_345_l1      fixed   factor   9.4700342E-02  0.00001    500.0    l1_kh       1.0000    0.0000   1
pp_347_l1      fixed   factor   0.1503174      0.00001    500.0    l1_kh       1.0000    0.0000   1
pp_348_l1      fixed   factor   1.4859968E-02  0.00001    500.0    l1_kh       1.0000    0.0000   1
pp_352_l1      fixed   factor    1.539845      0.00001    500.0    l1_kh       1.0000    0.0000   1
pp_355_l1      fixed   factor   1.0423421E-02  0.00001    500.0    l1_kh       1.0000    0.0000   1
pp_358_l1      fixed   factor   0.2394613      0.00001    500.0    l1_kh       1.0000    0.0000   1
pp_366_l1      fixed   factor   0.5495030      0.00001    500.0    l1_kh       1.0000    0.0000   1
pp_370_l1      fixed   factor   6.4644774E-03  0.00001    500.0    l1_kh       1.0000    0.0000   1
pp_372_l1      fixed   factor   0.1440783      0.00001    500.0    l1_kh       1.0000    0.0000   1
pp_374_l1      fixed   factor   0.1852367      0.00001    500.0    l1_kh       1.0000    0.0000   1
pp_376_l1      fixed   factor   0.1189473      0.00001    500.0    l1_kh       1.0000    0.0000   1
pp_377_l1      fixed   factor   0.3138545      0.00001    500.0    l1_kh       1.0000    0.0000   1
pp_378_l1      fixed   factor   0.1333135      0.00001    500.0    l1_kh       1.0000    0.0000   1
pp_379_l1      fixed   factor   1.7275483E-02  0.00001    500.0    l1_kh       1.0000    0.0000   1
pp_380_l1      fixed   factor   5.4519848E-03  0.00001    500.0    l1_kh       1.0000    0.0000   1
pp_381_l1      fixed   factor   0.1587043      0.00001    500.0    l1_kh       1.0000    0.0000   1
pp_382_l1      fixed   factor   0.1073933      0.00001    500.0    l1_kh       1.0000    0.0000   1
pp_383_l1      fixed   factor   0.1154321      0.00001    500.0    l1_kh       1.0000    0.0000   1
pp_384_l1      fixed   factor   0.2355132      0.00001    500.0    l1_kh       1.0000    0.0000   1
pp_387_l1      fixed   factor   0.1488382      0.00001    500.0    l1_kh       1.0000    0.0000   1
pp_388_l1      fixed   factor   0.2195196      0.00001    500.0    l1_kh       1.0000    0.0000   1
pp_389_l1      fixed   factor   0.1709837      0.00001    500.0    l1_kh       1.0000    0.0000   1
pp_390_l1      fixed   factor   0.1135275      0.00001    500.0    l1_kh       1.0000    0.0000   1
pp_392_l1      fixed   factor   8.0470163E-02  0.00001    500.0    l1_kh       1.0000    0.0000   1
pp_394_l1      fixed   factor   3.0276133E-03  0.00001    500.0    l1_kh       1.0000    0.0000   1
pp_396_l1      fixed   factor   0.1658094      0.00001    500.0    l1_kh       1.0000    0.0000   1
pp_397_l1      fixed   factor   0.1011496      0.00001    500.0    l1_kh       1.0000    0.0000   1
pp_398_l1      fixed   factor   0.2857804      0.00001    500.0    l1_kh       1.0000    0.0000   1
pp_399_l1      fixed   factor   0.6424245      0.00001    500.0    l1_kh       1.0000    0.0000   1
pp_401_l1      fixed   factor   0.1624058      0.00001    500.0    l1_kh       1.0000    0.0000   1
pp_402_l1      fixed   factor   8.7104499E-02  0.00001    500.0    l1_kh       1.0000    0.0000   1
pp_403_l1      fixed   factor   0.5840922      0.00001    500.0    l1_kh       1.0000    0.0000   1
pp_404_l1      fixed   factor    9.796445      0.00001    500.0    l1_kh       1.0000    0.0000   1
pp_406_l1      fixed   factor   0.1375764      0.00001    500.0    l1_kh       1.0000    0.0000   1
pp_407_l1      fixed   factor   0.9334164      0.00001    500.0    l1_kh       1.0000    0.0000   1
pp_409_l1      fixed   factor   0.1169540      0.00001    500.0    l1_kh       1.0000    0.0000   1
pp_410_l1      fixed   factor   0.1537401      0.00001    500.0    l1_kh       1.0000    0.0000   1
pp_411_l1      fixed   factor   4.4268351E-02  0.00001    500.0    l1_kh       1.0000    0.0000   1
pp_412_l1      fixed   factor   0.1526931      0.00001    500.0    l1_kh       1.0000    0.0000   1
pp_417_l1      fixed   factor   0.1018803      0.00001    500.0    l1_kh       1.0000    0.0000   1
pp_419_l1      fixed   factor   5.5664668E-02  0.00001    500.0    l1_kh       1.0000    0.0000   1
pp_420_l1      fixed   factor   0.2283219      0.00001    500.0    l1_kh       1.0000    0.0000   1
pp_421_l1      fixed   factor   0.1848119      0.00001    500.0    l1_kh       1.0000    0.0000   1
pp_422_l1      fixed   factor   0.1300299      0.00001    500.0    l1_kh       1.0000    0.0000   1
pp_423_l1      fixed   factor   9.1359101E-02  0.00001    500.0    l1_kh       1.0000    0.0000   1
pp_424_l1      fixed   factor   9.0078064E-02  0.00001    500.0    l1_kh       1.0000    0.0000   1
pp_425_l1      fixed   factor   0.1588205      0.00001    500.0    l1_kh       1.0000    0.0000   1
pp_426_l1      fixed   factor   0.9590432      0.00001    500.0    l1_kh       1.0000    0.0000   1
pp_428_l1      fixed   factor   0.1454310      0.00001    500.0    l1_kh       1.0000    0.0000   1
pp_429_l1      fixed   factor   0.2769609      0.00001    500.0    l1_kh       1.0000    0.0000   1
pp_430_l1      fixed   factor   0.1754118      0.00001    500.0    l1_kh       1.0000    0.0000   1
pp_432_l1      fixed   factor   0.2758291      0.00001    500.0    l1_kh       1.0000    0.0000   1
pp_433_l1      fixed   factor   0.2845190      0.00001    500.0    l1_kh       1.0000    0.0000   1
pp_434_l1      fixed   factor    9.918662      0.00001    500.0    l1_kh       1.0000    0.0000   1
pp_435_l1      fixed   factor   0.4853943      0.00001    500.0    l1_kh       1.0000    0.0000   1
pp_436_l1      fixed   factor   7.5664160E-02  0.00001    500.0    l1_kh       1.0000    0.0000   1
pp_438_l1      fixed   factor   6.6592094E-02  0.00001    500.0    l1_kh       1.0000    0.0000   1
pp_442_l1      fixed   factor   0.1874350      0.00001    500.0    l1_kh       1.0000    0.0000   1
pp_444_l1      fixed   factor   0.1265998      0.00001    500.0    l1_kh       1.0000    0.0000   1
pp_445_l1      fixed   factor   9.4736070E-02  0.00001    500.0    l1_kh       1.0000    0.0000   1
pp_446_l1      fixed   factor   0.1261150      0.00001    500.0    l1_kh       1.0000    0.0000   1
pp_447_l1      fixed   factor   0.1414785      0.00001    500.0    l1_kh       1.0000    0.0000   1
pp_448_l1      fixed   factor   8.5200936E-02  0.00001    500.0    l1_kh       1.0000    0.0000   1
pp_450_l1      fixed   factor   0.2697197      0.00001    500.0    l1_kh       1.0000    0.0000   1
pp_455_l1      fixed   factor   7.6276399E-02  0.00001    500.0    l1_kh       1.0000    0.0000   1
pp_456_l1      fixed   factor    9.994820      0.00001    500.0    l1_kh       1.0000    0.0000   1
pp_458_l1      fixed   factor   0.4679077      0.00001    500.0    l1_kh       1.0000    0.0000   1
pp_459_l1      fixed   factor   0.2885359      0.00001    500.0    l1_kh       1.0000    0.0000   1
pp_460_l1      fixed   factor   5.2708048E-02  0.00001    500.0    l1_kh       1.0000    0.0000   1
pp_461_l1      fixed   factor   0.1567775      0.00001    500.0    l1_kh       1.0000    0.0000   1
pp_462_l1      fixed   factor   0.1226514      0.00001    500.0    l1_kh       1.0000    0.0000   1
pp_463_l1      fixed   factor    9.973134      0.00001    500.0    l1_kh       1.0000    0.0000   1
pp_464_l1      fixed   factor   3.8978907E-02  0.00001    500.0    l1_kh       1.0000    0.0000   1
pp_466_l1      fixed   factor   8.6944312E-02  0.00001    500.0    l1_kh       1.0000    0.0000   1
pp_468_l1      fixed   factor   0.2038297      0.00001    500.0    l1_kh       1.0000    0.0000   1
pp_471_l1      fixed   factor   0.3214549      0.00001    500.0    l1_kh       1.0000    0.0000   1
pp_472_l1      fixed   factor    2.406130      0.00001    500.0    l1_kh       1.0000    0.0000   1
pp_475_l1      fixed   factor   0.1015310      0.00001    500.0    l1_kh       1.0000    0.0000   1
pp_483_l1      fixed   factor   0.1676309      0.00001    500.0    l1_kh       1.0000    0.0000   1
pp_484_l1      fixed   factor   0.2564206      0.00001    500.0    l1_kh       1.0000    0.0000   1
pp_485_l1      fixed   factor    10.20987      0.00001    500.0    l1_kh       1.0000    0.0000   1
pp_486_l1      fixed   factor    10.03947      0.00001    500.0    l1_kh       1.0000    0.0000   1
pp_488_l1      fixed   factor   0.3807272      0.00001    500.0    l1_kh       1.0000    0.0000   1
pp_490_l1      fixed   factor   0.1339478      0.00001    500.0    l1_kh       1.0000    0.0000   1
pp_493_l1      fixed   factor   0.1203677      0.00001    500.0    l1_kh       1.0000    0.0000   1
pp_495_l1      fixed   factor   0.4778761      0.00001    500.0    l1_kh       1.0000    0.0000   1
pp_496_l1      fixed   factor   0.2977701      0.00001    500.0    l1_kh       1.0000    0.0000   1
pp_497_l1      fixed   factor   0.8801861      0.00001    500.0    l1_kh       1.0000    0.0000   1
pp_498_l1      fixed   factor   9.9178343E-02  0.00001    500.0    l1_kh       1.0000    0.0000   1
pp_500_l1      fixed   factor   7.4207879E-02  0.00001    500.0    l1_kh       1.0000    0.0000   1
pp_502_l1      fixed   factor   6.8366064E-02  0.00001    500.0    l1_kh       1.0000    0.0000   1