pcf
* control data
restart estimation
 3535   203     17      0   9
    8    21 single  point   1    0 0
  5.0  -3.0    0.3   0.03  10
 15.0  15.0  0.001      0
  0.1
   50  0.01      3      3  0.01    3
    1     1      1
* singular value decomposition
   1
 500   1E-07
   0
* parameter groups
FINF                relative     0.030            0.0      always_3            2.0      best_fit
pET                 relative     0.030            0.0      always_3            2.0      best_fit
StrmBed             relative     0.030            0.0      always_3            2.0      best_fit
L1_Kh               relative     0.030            0.0      always_3            2.0      best_fit
L2_Kh_Zn2           relative     0.030            0.0      always_3            2.0      best_fit
L2_Kh_Zn3           relative     0.030            0.0      always_3            2.0      best_fit
L2_Kh_Zn4           relative     0.030            0.0      always_3            2.0      best_fit
L2_Kh_Zn5           relative     0.030            0.0      always_3            2.0      best_fit
L2_Kh_Zn6           relative     0.030            0.0      always_3            2.0      best_fit
L2_Kh_Zn7           relative     0.030            0.0      always_3            2.0      best_fit
L2_Kh_Zn8           relative     0.030            0.0      always_3            2.0      best_fit
L2_Kh_Zn9           relative     0.030            0.0      always_3            2.0      best_fit
L3_Kh_Zn10          relative     0.030            0.0      always_3            2.0      best_fit
SurfK_Alluv         relative     0.030            0.0      always_3            2.0      best_fit
SurfK_Mtn           relative     0.030            0.0      always_3            2.0      best_fit
vks_alluv           relative     0.030            0.0      always_3            2.0      best_fit
vks_mtn             relative     0.030            0.0      always_3            2.0      best_fit
* parameter data
finf log factor 0.4639109 0.1 1 finf 1 0 1
extdp log factor 1 0.1 1 finf 1 0 1
pet log factor 1.2 0.5 1.2 pet 1 0 1
kh_lay_1 fixed factor 1.041357 0.0001 1000 l1_kh 1 0 1
srfk_mult log factor 6.34E-03 0.0001 10 surfk_alluv 1 0 1
vks_mult log factor 1.964668 0.01 10 surfk_alluv 1 0 1
pp_3_l1 log factor 2.50E+00 0.00001 500 l1_kh 1 0 1
pp_4_l1 log factor 6.26E-01 0.00001 500 l1_kh 1 0 1
pp_9_l1 log factor 2.10E-01 0.00001 500 l1_kh 1 0 1
pp_10_l1 log factor 61.87356 0.00001 500 l1_kh 1 0 1
pp_12_l1 log factor 6.40E-01 0.00001 500 l1_kh 1 0 1
pp_16_l1 log factor 1.74E+00 0.00001 500 l1_kh 1 0 1
pp_17_l1 log factor 2.73E-01 0.00001 500 l1_kh 1 0 1
pp_18_l1 log factor 8.25E-01 0.00001 500 l1_kh 1 0 1
pp_23_l1 log factor 58.50303 0.00001 500 l1_kh 1 0 1
pp_24_l1 log factor 56.16408 0.00001 500 l1_kh 1 0 1
pp_26_l1 log factor 1.38E+00 0.00001 500 l1_kh 1 0 1
pp_27_l1 log factor 1.60E+00 0.00001 500 l1_kh 1 0 1
pp_29_l1 log factor 58.47618 0.00001 500 l1_kh 1 0 1
pp_30_l1 log factor 8.77E-01 0.00001 500 l1_kh 1 0 1
pp_34_l1 log factor 5.73E-01 0.00001 500 l1_kh 1 0 1
pp_35_l1 log factor 5.26E-01 0.00001 500 l1_kh 1 0 1
pp_36_l1 log factor 59.2968 0.00001 500 l1_kh 1 0 1
pp_39_l1 log factor 3.339825 0.00001 500 l1_kh 1 0 1
pp_41_l1 log factor 16.571838 0.00001 500 l1_kh 1 0 1
pp_42_l1 log factor 60.76944 0.00001 500 l1_kh 1 0 1
pp_45_l1 log factor 1.94E-01 0.00001 500 l1_kh 1 0 1
pp_47_l1 log factor 1.26E+00 0.00001 500 l1_kh 1 0 1
pp_50_l1 log factor 2.50E+00 0.00001 500 l1_kh 1 0 1
pp_51_l1 log factor 4.23E-01 0.00001 500 l1_kh 1 0 1
pp_54_l1 log factor 3.57336 0.00001 500 l1_kh 1 0 1
pp_56_l1 log factor 4.07E-01 0.00001 500 l1_kh 1 0 1
pp_58_l1 log factor 1.54E+00 0.00001 500 l1_kh 1 0 1
pp_61_l1 log factor 9.35E-01 0.00001 500 l1_kh 1 0 1
pp_63_l1 log factor 1.26E+00 0.00001 500 l1_kh 1 0 1
pp_68_l1 log factor 4.09E-01 0.00001 500 l1_kh 1 0 1
pp_71_l1 log factor 2.16E+00 0.00001 500 l1_kh 1 0 1
pp_77_l1 log factor 3.40E-01 0.00001 500 l1_kh 1 0 1
pp_78_l1 log factor 7.83E-01 0.00001 500 l1_kh 1 0 1
pp_82_l1 log factor 3.447564 0.00001 500 l1_kh 1 0 1
pp_88_l1 log factor 6.57E-01 0.00001 500 l1_kh 1 0 1
pp_90_l1 log factor 8.99E-01 0.00001 500 l1_kh 1 0 1
pp_91_l1 log factor 30.02361 0.00001 500 l1_kh 1 0 1
pp_93_l1 log factor 9.62E-01 0.00001 500 l1_kh 1 0 1
pp_94_l1 log factor 6.59E-01 0.00001 500 l1_kh 1 0 1
pp_95_l1 log factor 3.22E-01 0.00001 500 l1_kh 1 0 1
pp_96_l1 log factor 2.48E+00 0.00001 500 l1_kh 1 0 1
pp_98_l1 log factor 9.52E-01 0.00001 500 l1_kh 1 0 1
pp_99_l1 log factor 9.21E-01 0.00001 500 l1_kh 1 0 1
pp_101_l1 log factor 1.47E+00 0.00001 500 l1_kh 1 0 1
pp_103_l1 log factor 9.47E-01 0.00001 500 l1_kh 1 0 1
pp_105_l1 log factor 5.24E-01 0.00001 500 l1_kh 1 0 1
pp_107_l1 log factor 9.25E-01 0.00001 500 l1_kh 1 0 1
pp_108_l1 log factor 2.03E-02 0.00001 500 l1_kh 1 0 1
pp_110_l1 log factor 6.48E-01 0.00001 500 l1_kh 1 0 1
pp_114_l1 log factor 7.92E-01 0.00001 500 l1_kh 1 0 1
pp_117_l1 log factor 4.93E-01 0.00001 500 l1_kh 1 0 1
pp_119_l1 log factor 5.54E-01 0.00001 500 l1_kh 1 0 1
pp_122_l1 log factor 6.68E-01 0.00001 500 l1_kh 1 0 1
pp_125_l1 log factor 2.52E-01 0.00001 500 l1_kh 1 0 1
pp_126_l1 log factor 5.50E-01 0.00001 500 l1_kh 1 0 1
pp_127_l1 log factor 5.79E-01 0.00001 500 l1_kh 1 0 1
pp_128_l1 log factor 4.36E-01 0.00001 500 l1_kh 1 0 1
pp_129_l1 log factor 2.61E-01 0.00001 500 l1_kh 1 0 1
pp_135_l1 log factor 5.45E-01 0.00001 500 l1_kh 1 0 1
pp_142_l1 log factor 4.75E-01 0.00001 500 l1_kh 1 0 1
pp_145_l1 log factor 3.72E-01 0.00001 500 l1_kh 1 0 1
pp_148_l1 log factor 4.49E-01 0.00001 500 l1_kh 1 0 1
pp_152_l1 log factor 5.11E-01 0.00001 500 l1_kh 1 0 1
pp_153_l1 log factor 6.37E-01 0.00001 500 l1_kh 1 0 1
pp_155_l1 log factor 6.44E-01 0.00001 500 l1_kh 1 0 1
pp_159_l1 log factor 5.52E-01 0.00001 500 l1_kh 1 0 1
pp_160_l1 log factor 5.66E-01 0.00001 500 l1_kh 1 0 1
pp_164_l1 log factor 6.26E-01 0.00001 500 l1_kh 1 0 1
pp_166_l1 log factor 6.38E-01 0.00001 500 l1_kh 1 0 1
pp_167_l1 log factor 6.82E-01 0.00001 500 l1_kh 1 0 1
pp_168_l1 log factor 7.79E-01 0.00001 500 l1_kh 1 0 1
pp_170_l1 log factor 7.52E-01 0.00001 500 l1_kh 1 0 1
pp_174_l1 log factor 5.81E-01 0.00001 500 l1_kh 1 0 1
pp_179_l1 log factor 6.37E-01 0.00001 500 l1_kh 1 0 1
pp_182_l1 log factor 9.49E-01 0.00001 500 l1_kh 1 0 1
pp_187_l1 log factor 7.69E-01 0.00001 500 l1_kh 1 0 1
pp_189_l1 log factor 6.80E-01 0.00001 500 l1_kh 1 0 1
pp_190_l1 log factor 5.55E-01 0.00001 500 l1_kh 1 0 1
pp_191_l1 log factor 4.64E-01 0.00001 500 l1_kh 1 0 1
pp_193_l1 log factor 6.54E-01 0.00001 500 l1_kh 1 0 1
pp_198_l1 log factor 1.25E+00 0.00001 500 l1_kh 1 0 1
pp_200_l1 log factor 1.46E-01 0.00001 500 l1_kh 1 0 1
pp_201_l1 log factor 5.75E-01 0.00001 500 l1_kh 1 0 1
pp_202_l1 log factor 4.82E-01 0.00001 500 l1_kh 1 0 1
pp_205_l1 log factor 6.20E-01 0.00001 500 l1_kh 1 0 1
pp_206_l1 log factor 6.53E-01 0.00001 500 l1_kh 1 0 1
pp_207_l1 log factor 5.98E-01 0.00001 500 l1_kh 1 0 1
pp_208_l1 log factor 5.95E-01 0.00001 500 l1_kh 1 0 1
pp_209_l1 log factor 4.43E-01 0.00001 500 l1_kh 1 0 1
pp_210_l1 log factor 6.27E-01 0.00001 500 l1_kh 1 0 1
pp_212_l1 log factor 7.54E-01 0.00001 500 l1_kh 1 0 1
pp_214_l1 log factor 6.12E-01 0.00001 500 l1_kh 1 0 1
pp_215_l1 log factor 6.32E-01 0.00001 500 l1_kh 1 0 1
pp_216_l1 log factor 9.97E-01 0.00001 500 l1_kh 1 0 1
pp_217_l1 log factor 5.91E-01 0.00001 500 l1_kh 1 0 1
pp_218_l1 log factor 6.05E-01 0.00001 500 l1_kh 1 0 1
pp_219_l1 log factor 6.70E-01 0.00001 500 l1_kh 1 0 1
pp_222_l1 log factor 4.97E-01 0.00001 500 l1_kh 1 0 1
pp_224_l1 log factor 7.28E-01 0.00001 500 l1_kh 1 0 1
pp_225_l1 log factor 6.25E-01 0.00001 500 l1_kh 1 0 1
pp_226_l1 log factor 5.79E-01 0.00001 500 l1_kh 1 0 1
pp_227_l1 log factor 7.21E-01 0.00001 500 l1_kh 1 0 1
pp_229_l1 log factor 4.07E-01 0.00001 500 l1_kh 1 0 1
pp_233_l1 log factor 6.78E-01 0.00001 500 l1_kh 1 0 1
pp_235_l1 log factor 8.05E-01 0.00001 500 l1_kh 1 0 1
pp_236_l1 log factor 1.94E+00 0.00001 500 l1_kh 1 0 1
pp_237_l1 log factor 4.268592 0.00001 500 l1_kh 1 0 1
pp_241_l1 log factor 1.17E+00 0.00001 500 l1_kh 1 0 1
pp_242_l1 log factor 1.97E-01 0.00001 500 l1_kh 1 0 1
pp_243_l1 log factor 9.09E-01 0.00001 500 l1_kh 1 0 1
pp_245_l1 log factor 4.31E-01 0.00001 500 l1_kh 1 0 1
pp_246_l1 log factor 2.81E-01 0.00001 500 l1_kh 1 0 1
pp_247_l1 log factor 8.93E-02 0.00001 500 l1_kh 1 0 1
pp_251_l1 log factor 3.298098 0.00001 500 l1_kh 1 0 1
pp_252_l1 log factor 8.84E-01 0.00001 500 l1_kh 1 0 1
pp_253_l1 log factor 1.89E+00 0.00001 500 l1_kh 1 0 1
pp_254_l1 log factor 1.60E+00 0.00001 500 l1_kh 1 0 1
pp_255_l1 log factor 8.23E-01 0.00001 500 l1_kh 1 0 1
pp_257_l1 log factor 1.15E+00 0.00001 500 l1_kh 1 0 1
pp_258_l1 log factor 1.11E+00 0.00001 500 l1_kh 1 0 1
pp_259_l1 log factor 3.731031 0.00001 500 l1_kh 1 0 1
pp_260_l1 log factor 1.10E+00 0.00001 500 l1_kh 1 0 1
pp_264_l1 log factor 1.92E-01 0.00001 500 l1_kh 1 0 1
pp_269_l1 log factor 6.98E-01 0.00001 500 l1_kh 1 0 1
pp_272_l1 log factor 2.26E-01 0.00001 500 l1_kh 1 0 1
pp_273_l1 log factor 3.64266 0.00001 500 l1_kh 1 0 1
pp_277_l1 log factor 1.15E+00 0.00001 500 l1_kh 1 0 1
pp_278_l1 log factor 6.34E-01 0.00001 500 l1_kh 1 0 1
pp_282_l1 log factor 3.80E-01 0.00001 500 l1_kh 1 0 1
pp_286_l1 log factor 5.87E-01 0.00001 500 l1_kh 1 0 1
pp_290_l1 log factor 5.63E-01 0.00001 500 l1_kh 1 0 1
pp_291_l1 log factor 2.59E-01 0.00001 500 l1_kh 1 0 1
pp_294_l1 log factor 3.10E-01 0.00001 500 l1_kh 1 0 1
pp_295_l1 log factor 3.360816 0.00001 500 l1_kh 1 0 1
pp_296_l1 log factor 7.62E-01 0.00001 500 l1_kh 1 0 1
pp_302_l1 log factor 4.155825 0.00001 500 l1_kh 1 0 1
pp_303_l1 log factor 5.23E-01 0.00001 500 l1_kh 1 0 1
pp_306_l1 log factor 1.26E+00 0.00001 500 l1_kh 1 0 1
pp_307_l1 log factor 1.24E+00 0.00001 500 l1_kh 1 0 1
pp_309_l1 log factor 1.41E-01 0.00001 500 l1_kh 1 0 1
pp_313_l1 log factor 4.82E-01 0.00001 500 l1_kh 1 0 1
pp_318_l1 log factor 1.85E+00 0.00001 500 l1_kh 1 0 1
pp_321_l1 log factor 8.94E-01 0.00001 500 l1_kh 1 0 1
pp_323_l1 log factor 2.59E-01 0.00001 500 l1_kh 1 0 1
pp_324_l1 log factor 8.63E-01 0.00001 500 l1_kh 1 0 1
pp_325_l1 log factor 1.96E-01 0.00001 500 l1_kh 1 0 1
pp_330_l1 log factor 9.40E-01 0.00001 500 l1_kh 1 0 1
pp_340_l1 log factor 8.15E-01 0.00001 500 l1_kh 1 0 1
pp_342_l1 log factor 6.64E-01 0.00001 500 l1_kh 1 0 1
pp_344_l1 log factor 5.98E-01 0.00001 500 l1_kh 1 0 1
pp_345_l1 log factor 6.41E-01 0.00001 500 l1_kh 1 0 1
pp_347_l1 log factor 9.47E-01 0.00001 500 l1_kh 1 0 1
pp_348_l1 log factor 8.89E-02 0.00001 500 l1_kh 1 0 1
pp_352_l1 log factor 9.198465 0.00001 500 l1_kh 1 0 1
pp_355_l1 log factor 6.79E-02 0.00001 500 l1_kh 1 0 1
pp_358_l1 log factor 1.43E+00 0.00001 500 l1_kh 1 0 1
pp_366_l1 log factor 3.358482 0.00001 500 l1_kh 1 0 1
pp_370_l1 log factor 4.09E-02 0.00001 500 l1_kh 1 0 1
pp_372_l1 log factor 9.42E-01 0.00001 500 l1_kh 1 0 1
pp_374_l1 log factor 1.19E+00 0.00001 500 l1_kh 1 0 1
pp_376_l1 log factor 8.13E-01 0.00001 500 l1_kh 1 0 1
pp_377_l1 log factor 1.91E+00 0.00001 500 l1_kh 1 0 1
pp_378_l1 log factor 8.64E-01 0.00001 500 l1_kh 1 0 1
pp_379_l1 log factor 1.05E-01 0.00001 500 l1_kh 1 0 1
pp_380_l1 log factor 3.54E-02 0.00001 500 l1_kh 1 0 1
pp_381_l1 log factor 1.01E+00 0.00001 500 l1_kh 1 0 1
pp_382_l1 log factor 6.46E-01 0.00001 500 l1_kh 1 0 1
pp_383_l1 log factor 9.11E-01 0.00001 500 l1_kh 1 0 1
pp_384_l1 log factor 1.42E+00 0.00001 500 l1_kh 1 0 1
pp_387_l1 log factor 9.36E-01 0.00001 500 l1_kh 1 0 1
pp_388_l1 log factor 1.31E+00 0.00001 500 l1_kh 1 0 1
pp_389_l1 log factor 1.01E+00 0.00001 500 l1_kh 1 0 1
pp_390_l1 log factor 7.34E-01 0.00001 500 l1_kh 1 0 1
pp_392_l1 log factor 4.94E-01 0.00001 500 l1_kh 1 0 1
pp_394_l1 log factor 1.56E-02 0.00001 500 l1_kh 1 0 1
pp_396_l1 log factor 1.01E+00 0.00001 500 l1_kh 1 0 1
pp_397_l1 log factor 5.66E-01 0.00001 500 l1_kh 1 0 1
pp_398_l1 log factor 1.65E+00 0.00001 500 l1_kh 1 0 1
pp_399_l1 log factor 2.42E+00 0.00001 500 l1_kh 1 0 1
pp_401_l1 log factor 9.36E-01 0.00001 500 l1_kh 1 0 1
pp_402_l1 log factor 5.38E-01 0.00001 500 l1_kh 1 0 1
pp_403_l1 log factor 3.335637 0.00001 500 l1_kh 1 0 1
pp_404_l1 log factor 58.91982 0.00001 500 l1_kh 1 0 1
pp_406_l1 log factor 9.27E-01 0.00001 500 l1_kh 1 0 1
pp_407_l1 log factor 5.048205 0.00001 500 l1_kh 1 0 1
pp_409_l1 log factor 7.70E-01 0.00001 500 l1_kh 1 0 1
pp_410_l1 log factor 8.92E-01 0.00001 500 l1_kh 1 0 1
pp_411_l1 log factor 2.75E-01 0.00001 500 l1_kh 1 0 1
pp_412_l1 log factor 9.03E-01 0.00001 500 l1_kh 1 0 1
pp_417_l1 log factor 6.56E-01 0.00001 500 l1_kh 1 0 1
pp_419_l1 log factor 3.34E-01 0.00001 500 l1_kh 1 0 1
pp_420_l1 log factor 1.39E+00 0.00001 500 l1_kh 1 0 1
pp_421_l1 log factor 1.08E+00 0.00001 500 l1_kh 1 0 1
pp_422_l1 log factor 7.87E-01 0.00001 500 l1_kh 1 0 1
pp_423_l1 log factor 5.53E-01 0.00001 500 l1_kh 1 0 1
pp_424_l1 log factor 6.12E-01 0.00001 500 l1_kh 1 0 1
pp_425_l1 log factor 6.36E-01 0.00001 500 l1_kh 1 0 1
pp_426_l1 log factor 6.11292 0.00001 500 l1_kh 1 0 1
pp_428_l1 log factor 6.64E-01 0.00001 500 l1_kh 1 0 1
pp_429_l1 log factor 1.65E+00 0.00001 500 l1_kh 1 0 1
pp_430_l1 log factor 9.83E-01 0.00001 500 l1_kh 1 0 1
pp_432_l1 log factor 1.68E+00 0.00001 500 l1_kh 1 0 1
pp_433_l1 log factor 1.90E+00 0.00001 500 l1_kh 1 0 1
pp_434_l1 log factor 59.319 0.00001 500 l1_kh 1 0 1
pp_435_l1 log factor 2.82E+00 0.00001 500 l1_kh 1 0 1
pp_436_l1 log factor 4.48E-01 0.00001 500 l1_kh 1 0 1
pp_438_l1 log factor 3.71E-01 0.00001 500 l1_kh 1 0 1
pp_442_l1 log factor 8.04E-01 0.00001 500 l1_kh 1 0 1
pp_444_l1 log factor 6.74E-01 0.00001 500 l1_kh 1 0 1
pp_445_l1 log factor 5.77E-01 0.00001 500 l1_kh 1 0 1
pp_446_l1 log factor 7.68E-01 0.00001 500 l1_kh 1 0 1
pp_447_l1 log factor 8.80E-01 0.00001 500 l1_kh 1 0 1
pp_448_l1 log factor 5.08E-01 0.00001 500 l1_kh 1 0 1
pp_450_l1 log factor 3.34338 0.00001 500 l1_kh 1 0 1
pp_455_l1 log factor 4.34E-01 0.00001 500 l1_kh 1 0 1
pp_456_l1 log factor 5318.31 0.00001 500 l1_kh 1 0 1
pp_458_l1 log factor 4.895856 0.00001 500 l1_kh 1 0 1
pp_459_l1 log factor 4.75E-01 0.00001 500 l1_kh 1 0 1
pp_460_l1 log factor 4.89E-01 0.00001 500 l1_kh 1 0 1
pp_461_l1 log factor 9.45E-01 0.00001 500 l1_kh 1 0 1
pp_462_l1 log factor 2.01E+00 0.00001 500 l1_kh 1 0 1
pp_463_l1 log factor 46.35468 0.00001 500 l1_kh 1 0 1
pp_464_l1 log factor 2.46E-01 0.00001 500 l1_kh 1 0 1
pp_466_l1 log factor 5.01E-01 0.00001 500 l1_kh 1 0 1
pp_468_l1 log factor 1.14E+00 0.00001 500 l1_kh 1 0 1
pp_471_l1 log factor 1.97E+00 0.00001 500 l1_kh 1 0 1
pp_472_l1 log factor 12.998706 0.00001 500 l1_kh 1 0 1
pp_475_l1 log factor 5.58E-01 0.00001 500 l1_kh 1 0 1
pp_483_l1 log factor 1.06E+00 0.00001 500 l1_kh 1 0 1
pp_484_l1 log factor 13.282854 0.00001 500 l1_kh 1 0 1
pp_485_l1 log factor 145.1097 0.00001 500 l1_kh 1 0 1
pp_486_l1 log factor 34.13868 0.00001 500 l1_kh 1 0 1
pp_488_l1 log factor 2.32E+00 0.00001 500 l1_kh 1 0 1
pp_490_l1 log factor 9.91E-01 0.00001 500 l1_kh 1 0 1
pp_493_l1 log factor 4.93E-01 0.00001 500 l1_kh 1 0 1
pp_495_l1 log factor 100.78782 0.00001 500 l1_kh 1 0 1
pp_496_l1 log factor 8.138691 0.00001 500 l1_kh 1 0 1
pp_497_l1 log factor 5.050035 0.00001 500 l1_kh 1 0 1
pp_498_l1 log factor 5.76E-01 0.00001 500 l1_kh 1 0 1
pp_500_l1 log factor 4.43E-01 0.00001 500 l1_kh 1 0 1
pp_502_l1 log factor 3.92E-01 0.00001 500 l1_kh 1 0 1
pp_504_l1 log factor 7.46E-01 0.00001 500 l1_kh 1 0 1
pp_506_l1 log factor 4.76E-01 0.00001 500 l1_kh 1 0 1
pp_510_l1 log factor 2.64E-01 0.00001 500 l1_kh 1 0 1
pp_511_l1 log factor 135.20583 0.00001 500 l1_kh 1 0 1
pp_512_l1 log factor 4.88E-01 0.00001 500 l1_kh 1 0 1
pp_513_l1 log factor 6.21E-02 0.00001 500 l1_kh 1 0 1
pp_515_l1 log factor 6.14E-01 0.00001 500 l1_kh 1 0 1
pp_517_l1 log factor 7.03E-01 0.00001 500 l1_kh 1 0 1
pp_518_l1 log factor 7.34E-01 0.00001 500 l1_kh 1 0 1
pp_519_l1 log factor 2.54E-01 0.00001 500 l1_kh 1 0 1
pp_521_l1 log factor 4.316718 0.00001 500 l1_kh 1 0 1
pp_522_l1 log factor 8.53E-01 0.00001 500 l1_kh 1 0 1
pp_523_l1 log factor 3.02E-01 0.00001 500 l1_kh 1 0 1
pp_524_l1 log factor 1.37E+00 0.00001 500 l1_kh 1 0 1
pp_526_l1 log factor 4.91E-01 0.00001 500 l1_kh 1 0 1
pp_529_l1 log factor 3.60E-01 0.00001 500 l1_kh 1 0 1
pp_530_l1 log factor 8.81E-01 0.00001 500 l1_kh 1 0 1
pp_531_l1 log factor 1.47E-01 0.00001 500 l1_kh 1 0 1
pp_538_l1 log factor 4.16E-01 0.00001 500 l1_kh 1 0 1
pp_543_l1 log factor 3.82E-01 0.00001 500 l1_kh 1 0 1
pp_550_l1 log factor 6.76E-01 0.00001 500 l1_kh 1 0 1
pp_551_l1 log factor 7.98E-01 0.00001 500 l1_kh 1 0 1
pp_552_l1 log factor 5.53E-01 0.00001 500 l1_kh 1 0 1
pp_554_l1 log factor 8.78E-01 0.00001 500 l1_kh 1 0 1
pp_555_l1 log factor 2.76E-01 0.00001 500 l1_kh 1 0 1
pp_556_l1 log factor 5.59E-01 0.00001 500 l1_kh 1 0 1
pp_557_l1 log factor 6.29E-01 0.00001 500 l1_kh 1 0 1
pp_558_l1 log factor 1.04E+00 0.00001 500 l1_kh 1 0 1
pp_565_l1 log factor 1.61E+00 0.00001 500 l1_kh 1 0 1
pp_566_l1 log factor 10.273191 0.00001 500 l1_kh 1 0 1
pp_568_l1 log factor 2.44E-01 0.00001 500 l1_kh 1 0 1
pp_572_l1 log factor 6.23E-01 0.00001 500 l1_kh 1 0 1
pp_576_l1 log factor 7.26E-01 0.00001 500 l1_kh 1 0 1
pp_577_l1 log factor 5.45E-01 0.00001 500 l1_kh 1 0 1
pp_578_l1 log factor 2.81E-01 0.00001 500 l1_kh 1 0 1
pp_579_l1 log factor 1.03E-01 0.00001 500 l1_kh 1 0 1
pp_580_l1 log factor 3.74E-01 0.00001 500 l1_kh 1 0 1
pp_581_l1 log factor 1.14E+00 0.00001 500 l1_kh 1 0 1
pp_582_l1 log factor 9.76E-01 0.00001 500 l1_kh 1 0 1
pp_584_l1 log factor 1.72E+00 0.00001 500 l1_kh 1 0 1
pp_587_l1 log factor 5.80E-01 0.00001 500 l1_kh 1 0 1
pp_588_l1 log factor 7.29E-01 0.00001 500 l1_kh 1 0 1
pp_590_l1 log factor 1.78E-01 0.00001 500 l1_kh 1 0 1
pp_591_l1 log factor 2.68E-01 0.00001 500 l1_kh 1 0 1
pp_592_l1 log factor 1.12E+00 0.00001 500 l1_kh 1 0 1
pp_593_l1 log factor 7.61E-01 0.00001 500 l1_kh 1 0 1
pp_594_l1 log factor 8.92E-01 0.00001 500 l1_kh 1 0 1
pp_595_l1 log factor 9.13E-02 0.00001 500 l1_kh 1 0 1
pp_597_l1 log factor 5.19E-01 0.00001 500 l1_kh 1 0 1
pp_598_l1 log factor 4.62E-01 0.00001 500 l1_kh 1 0 1
pp_599_l1 log factor 5.68E-01 0.00001 500 l1_kh 1 0 1
pp_600_l1 log factor 2.96E-01 0.00001 500 l1_kh 1 0 1
pp_604_l1 log factor 6.618477 0.00001 500 l1_kh 1 0 1
pp_605_l1 log factor 7.28E-01 0.00001 500 l1_kh 1 0 1
pp_607_l1 log factor 3.84E-01 0.00001 500 l1_kh 1 0 1
pp_609_l1 log factor 4.90E-01 0.00001 500 l1_kh 1 0 1
pp_610_l1 log factor 1.51E+00 0.00001 500 l1_kh 1 0 1
pp_611_l1 log factor 4.72E-01 0.00001 500 l1_kh 1 0 1
pp_612_l1 log factor 2.37E+00 0.00001 500 l1_kh 1 0 1
pp_613_l1 log factor 5.64E-01 0.00001 500 l1_kh 1 0 1
pp_617_l1 log factor 1.05E+00 0.00001 500 l1_kh 1 0 1
pp_627_l1 log factor 1.05E+00 0.00001 500 l1_kh 1 0 1
pp_628_l1 log factor 9.05E-01 0.00001 500 l1_kh 1 0 1
pp_630_l1 log factor 8.682216 0.00001 500 l1_kh 1 0 1
pp_631_l1 log factor 7.97E-01 0.00001 500 l1_kh 1 0 1
pp_632_l1 log factor 4.07E-01 0.00001 500 l1_kh 1 0 1
pp_637_l1 log factor 7.06E-01 0.00001 500 l1_kh 1 0 1
pp_638_l1 log factor 6.08E-01 0.00001 500 l1_kh 1 0 1
pp_644_l1 log factor 2.08E+00 0.00001 500 l1_kh 1 0 1
pp_645_l1 log factor 6.27E-01 0.00001 500 l1_kh 1 0 1
pp_646_l1 log factor 1.12E-01 0.00001 500 l1_kh 1 0 1
pp_647_l1 log factor 85.83588 0.00001 500 l1_kh 1 0 1
pp_648_l1 log factor 2.54E-01 0.00001 500 l1_kh 1 0 1
pp_650_l1 log factor 3.06E-01 0.00001 500 l1_kh 1 0 1
pp_651_l1 log factor 5.48E-01 0.00001 500 l1_kh 1 0 1
pp_652_l1 log factor 6.56E-01 0.00001 500 l1_kh 1 0 1
pp_653_l1 log factor 5.19E-01 0.00001 500 l1_kh 1 0 1
pp_656_l1 log factor 6.65E-01 0.00001 500 l1_kh 1 0 1
pp_657_l1 log factor 5.07E-01 0.00001 500 l1_kh 1 0 1
pp_658_l1 log factor 5.07E-01 0.00001 500 l1_kh 1 0 1
pp_659_l1 log factor 2.56E+00 0.00001 500 l1_kh 1 0 1
pp_661_l1 log factor 3.97E-01 0.00001 500 l1_kh 1 0 1
pp_663_l1 log factor 6.61E-01 0.00001 500 l1_kh 1 0 1
pp_665_l1 log factor 6.56E-01 0.00001 500 l1_kh 1 0 1
pp_666_l1 log factor 4.58E-01 0.00001 500 l1_kh 1 0 1
pp_667_l1 log factor 5.89E-01 0.00001 500 l1_kh 1 0 1
pp_668_l1 log factor 5.52E-01 0.00001 500 l1_kh 1 0 1
pp_675_l1 log factor 38.07843 0.00001 500 l1_kh 1 0 1
pp_678_l1 log factor 6.20E-01 0.00001 500 l1_kh 1 0 1
pp_684_l1 log factor 8.87E-02 0.00001 500 l1_kh 1 0 1
pp_689_l1 log factor 3.640818 0.00001 500 l1_kh 1 0 1
pp_692_l1 log factor 8.01E-03 0.00001 500 l1_kh 1 0 1
pp_1_l1 fixed factor 6.00E-01 0.00001 500 l1_kh 1 0 1
pp_2_l1 fixed factor 6.00E-01 0.00001 500 l1_kh 1 0 1
pp_5_l1 fixed factor 6.00E-01 0.00001 500 l1_kh 1 0 1
pp_6_l1 fixed factor 6.00E-01 0.00001 500 l1_kh 1 0 1
pp_7_l1 fixed factor 6.00E-01 0.00001 500 l1_kh 1 0 1
pp_8_l1 fixed factor 6.00E-01 0.00001 500 l1_kh 1 0 1
pp_11_l1 fixed factor 6.00E-01 0.00001 500 l1_kh 1 0 1
pp_13_l1 fixed factor 6.00E-01 0.00001 500 l1_kh 1 0 1
pp_14_l1 fixed factor 6.00E-01 0.00001 500 l1_kh 1 0 1
pp_15_l1 fixed factor 6.00E-01 0.00001 500 l1_kh 1 0 1
pp_19_l1 fixed factor 6.00E-01 0.00001 500 l1_kh 1 0 1
pp_20_l1 fixed factor 6.00E-01 0.00001 500 l1_kh 1 0 1
pp_21_l1 fixed factor 6.00E-01 0.00001 500 l1_kh 1 0 1
pp_22_l1 fixed factor 6.00E-01 0.00001 500 l1_kh 1 0 1
pp_25_l1 fixed factor 6.00E-01 0.00001 500 l1_kh 1 0 1
pp_28_l1 fixed factor 6.00E-01 0.00001 500 l1_kh 1 0 1
pp_31_l1 fixed factor 6.00E-01 0.00001 500 l1_kh 1 0 1
pp_32_l1 fixed factor 6.00E-01 0.00001 500 l1_kh 1 0 1
pp_33_l1 fixed factor 6.00E-01 0.00001 500 l1_kh 1 0 1
pp_37_l1 fixed factor 6.00E-01 0.00001 500 l1_kh 1 0 1
pp_38_l1 fixed factor 6.00E-01 0.00001 500 l1_kh 1 0 1
pp_40_l1 fixed factor 6.00E-01 0.00001 500 l1_kh 1 0 1
pp_43_l1 fixed factor 6.00E-01 0.00001 500 l1_kh 1 0 1
pp_44_l1 fixed factor 6.00E-01 0.00001 500 l1_kh 1 0 1
pp_46_l1 fixed factor 6.00E-01 0.00001 500 l1_kh 1 0 1
pp_48_l1 fixed factor 6.00E-01 0.00001 500 l1_kh 1 0 1
pp_49_l1 fixed factor 6.00E-01 0.00001 500 l1_kh 1 0 1
pp_52_l1 fixed factor 6.00E-01 0.00001 500 l1_kh 1 0 1
pp_53_l1 fixed factor 6.00E-01 0.00001 500 l1_kh 1 0 1
pp_55_l1 fixed factor 6.00E-01 0.00001 500 l1_kh 1 0 1
pp_57_l1 fixed factor 6.00E-01 0.00001 500 l1_kh 1 0 1
pp_59_l1 fixed factor 6.00E-01 0.00001 500 l1_kh 1 0 1
pp_60_l1 fixed factor 6.00E-01 0.00001 500 l1_kh 1 0 1
pp_62_l1 fixed factor 6.00E-01 0.00001 500 l1_kh 1 0 1
pp_64_l1 fixed factor 6.00E-01 0.00001 500 l1_kh 1 0 1
pp_65_l1 fixed factor 6.00E-01 0.00001 500 l1_kh 1 0 1
pp_66_l1 fixed factor 6.00E-01 0.00001 500 l1_kh 1 0 1
pp_67_l1 fixed factor 6.00E-01 0.00001 500 l1_kh 1 0 1
pp_69_l1 fixed factor 6.00E-01 0.00001 500 l1_kh 1 0 1
pp_70_l1 fixed factor 6.00E-01 0.00001 500 l1_kh 1 0 1
pp_72_l1 fixed factor 6.00E-01 0.00001 500 l1_kh 1 0 1
pp_73_l1 fixed factor 6.00E-01 0.00001 500 l1_kh 1 0 1
pp_74_l1 fixed factor 6.00E-01 0.00001 500 l1_kh 1 0 1
pp_75_l1 fixed factor 6.00E-01 0.00001 500 l1_kh 1 0 1
pp_76_l1 fixed factor 6.00E-01 0.00001 500 l1_kh 1 0 1
pp_79_l1 fixed factor 6.00E-01 0.00001 500 l1_kh 1 0 1
pp_80_l1 fixed factor 6.00E-01 0.00001 500 l1_kh 1 0 1
pp_81_l1 fixed factor 6.00E-01 0.00001 500 l1_kh 1 0 1
pp_83_l1 fixed factor 6.00E-01 0.00001 500 l1_kh 1 0 1
pp_84_l1 fixed factor 6.00E-01 0.00001 500 l1_kh 1 0 1
pp_85_l1 fixed factor 6.00E-01 0.00001 500 l1_kh 1 0 1
pp_86_l1 fixed factor 6.00E-01 0.00001 500 l1_kh 1 0 1
pp_87_l1 fixed factor 6.00E-01 0.00001 500 l1_kh 1 0 1
pp_89_l1 fixed factor 6.00E-01 0.00001 500 l1_kh 1 0 1
pp_92_l1 fixed factor 6.00E-01 0.00001 500 l1_kh 1 0 1
pp_97_l1 fixed factor 6.00E-01 0.00001 500 l1_kh 1 0 1
pp_100_l1 fixed factor 6.00E-01 0.00001 500 l1_kh 1 0 1
pp_102_l1 fixed factor 6.00E-01 0.00001 500 l1_kh 1 0 1
pp_104_l1 fixed factor 6.00E-01 0.00001 500 l1_kh 1 0 1
pp_106_l1 fixed factor 6.00E-01 0.00001 500 l1_kh 1 0 1
pp_109_l1 fixed factor 6.00E-01 0.00001 500 l1_kh 1 0 1
pp_111_l1 fixed factor 6.00E-01 0.00001 500 l1_kh 1 0 1
pp_112_l1 fixed factor 6.00E-01 0.00001 500 l1_kh 1 0 1
pp_113_l1 fixed factor 6.00E-01 0.00001 500 l1_kh 1 0 1
pp_115_l1 fixed factor 6.00E-01 0.00001 500 l1_kh 1 0 1
pp_116_l1 fixed factor 6.00E-01 0.00001 500 l1_kh 1 0 1
pp_118_l1 fixed factor 6.00E-01 0.00001 500 l1_kh 1 0 1
pp_120_l1 fixed factor 6.00E-01 0.00001 500 l1_kh 1 0 1
pp_121_l1 fixed factor 6.00E-01 0.00001 500 l1_kh 1 0 1
pp_123_l1 fixed factor 6.00E-01 0.00001 500 l1_kh 1 0 1
pp_124_l1 fixed factor 6.00E-01 0.00001 500 l1_kh 1 0 1
pp_130_l1 fixed factor 6.00E-01 0.00001 500 l1_kh 1 0 1
pp_131_l1 fixed factor 6.00E-01 0.00001 500 l1_kh 1 0 1
pp_132_l1 fixed factor 6.00E-01 0.00001 500 l1_kh 1 0 1
pp_133_l1 fixed factor 6.00E-01 0.00001 500 l1_kh 1 0 1
pp_134_l1 fixed factor 6.00E-01 0.00001 500 l1_kh 1 0 1
pp_136_l1 fixed factor 6.00E-01 0.00001 500 l1_kh 1 0 1
pp_137_l1 fixed factor 6.00E-01 0.00001 500 l1_kh 1 0 1
pp_138_l1 fixed factor 6.00E-01 0.00001 500 l1_kh 1 0 1
pp_139_l1 fixed factor 6.00E-01 0.00001 500 l1_kh 1 0 1
pp_140_l1 fixed factor 6.00E-01 0.00001 500 l1_kh 1 0 1
pp_141_l1 fixed factor 6.00E-01 0.00001 500 l1_kh 1 0 1
pp_143_l1 fixed factor 6.00E-01 0.00001 500 l1_kh 1 0 1
pp_144_l1 fixed factor 6.00E-01 0.00001 500 l1_kh 1 0 1
pp_146_l1 fixed factor 6.00E-01 0.00001 500 l1_kh 1 0 1
pp_147_l1 fixed factor 6.00E-01 0.00001 500 l1_kh 1 0 1
pp_149_l1 fixed factor 6.00E-01 0.00001 500 l1_kh 1 0 1
pp_150_l1 fixed factor 6.00E-01 0.00001 500 l1_kh 1 0 1
pp_151_l1 fixed factor 6.00E-01 0.00001 500 l1_kh 1 0 1
pp_154_l1 fixed factor 6.00E-01 0.00001 500 l1_kh 1 0 1
pp_156_l1 fixed factor 6.00E-01 0.00001 500 l1_kh 1 0 1
pp_157_l1 fixed factor 6.00E-01 0.00001 500 l1_kh 1 0 1
pp_158_l1 fixed factor 6.00E-01 0.00001 500 l1_kh 1 0 1
pp_161_l1 fixed factor 6.00E-01 0.00001 500 l1_kh 1 0 1
pp_162_l1 fixed factor 6.00E-01 0.00001 500 l1_kh 1 0 1
pp_163_l1 fixed factor 6.00E-01 0.00001 500 l1_kh 1 0 1
pp_165_l1 fixed factor 6.00E-01 0.00001 500 l1_kh 1 0 1
pp_169_l1 fixed factor 6.00E-01 0.00001 500 l1_kh 1 0 1
pp_171_l1 fixed factor 6.00E-01 0.00001 500 l1_kh 1 0 1
pp_172_l1 fixed factor 6.00E-01 0.00001 500 l1_kh 1 0 1
pp_173_l1 fixed factor 6.00E-01 0.00001 500 l1_kh 1 0 1
pp_175_l1 fixed factor 6.00E-01 0.00001 500 l1_kh 1 0 1
pp_176_l1 fixed factor 6.00E-01 0.00001 500 l1_kh 1 0 1
pp_177_l1 fixed factor 6.00E-01 0.00001 500 l1_kh 1 0 1
pp_178_l1 fixed factor 6.00E-01 0.00001 500 l1_kh 1 0 1
pp_180_l1 fixed factor 6.00E-01 0.00001 500 l1_kh 1 0 1
pp_181_l1 fixed factor 6.00E-01 0.00001 500 l1_kh 1 0 1
pp_183_l1 fixed factor 6.00E-01 0.00001 500 l1_kh 1 0 1
pp_184_l1 fixed factor 6.00E-01 0.00001 500 l1_kh 1 0 1
pp_185_l1 fixed factor 6.00E-01 0.00001 500 l1_kh 1 0 1
pp_186_l1 fixed factor 6.00E-01 0.00001 500 l1_kh 1 0 1
pp_188_l1 fixed factor 6.00E-01 0.00001 500 l1_kh 1 0 1
pp_192_l1 fixed factor 6.00E-01 0.00001 500 l1_kh 1 0 1
pp_194_l1 fixed factor 6.00E-01 0.00001 500 l1_kh 1 0 1
pp_195_l1 fixed factor 6.00E-01 0.00001 500 l1_kh 1 0 1
pp_196_l1 fixed factor 6.00E-01 0.00001 500 l1_kh 1 0 1
pp_197_l1 fixed factor 6.00E-01 0.00001 500 l1_kh 1 0 1
pp_199_l1 fixed factor 6.00E-01 0.00001 500 l1_kh 1 0 1
pp_203_l1 fixed factor 6.00E-01 0.00001 500 l1_kh 1 0 1
pp_204_l1 fixed factor 6.00E-01 0.00001 500 l1_kh 1 0 1
pp_211_l1 fixed factor 6.00E-01 0.00001 500 l1_kh 1 0 1
pp_213_l1 fixed factor 6.00E-01 0.00001 500 l1_kh 1 0 1
pp_220_l1 fixed factor 6.00E-01 0.00001 500 l1_kh 1 0 1
pp_221_l1 fixed factor 6.00E-01 0.00001 500 l1_kh 1 0 1
pp_223_l1 fixed factor 6.00E-01 0.00001 500 l1_kh 1 0 1
pp_228_l1 fixed factor 6.00E-01 0.00001 500 l1_kh 1 0 1
pp_230_l1 fixed factor 6.00E-01 0.00001 500 l1_kh 1 0 1
pp_231_l1 fixed factor 6.00E-01 0.00001 500 l1_kh 1 0 1
pp_232_l1 fixed factor 6.00E-01 0.00001 500 l1_kh 1 0 1
pp_234_l1 fixed factor 6.00E-01 0.00001 500 l1_kh 1 0 1
pp_238_l1 fixed factor 6.00E-01 0.00001 500 l1_kh 1 0 1
pp_239_l1 fixed factor 6.00E-01 0.00001 500 l1_kh 1 0 1
pp_240_l1 fixed factor 6.00E-01 0.00001 500 l1_kh 1 0 1
pp_244_l1 fixed factor 6.00E-01 0.00001 500 l1_kh 1 0 1
pp_248_l1 fixed factor 6.00E-01 0.00001 500 l1_kh 1 0 1
pp_249_l1 fixed factor 6.00E-01 0.00001 500 l1_kh 1 0 1
pp_250_l1 fixed factor 6.00E-01 0.00001 500 l1_kh 1 0 1
pp_256_l1 fixed factor 6.00E-01 0.00001 500 l1_kh 1 0 1
pp_261_l1 fixed factor 6.00E-01 0.00001 500 l1_kh 1 0 1
pp_262_l1 fixed factor 6.00E-01 0.00001 500 l1_kh 1 0 1
pp_263_l1 fixed factor 6.00E-01 0.00001 500 l1_kh 1 0 1
pp_265_l1 fixed factor 6.00E-01 0.00001 500 l1_kh 1 0 1
pp_266_l1 fixed factor 6.00E-01 0.00001 500 l1_kh 1 0 1
pp_267_l1 fixed factor 6.00E-01 0.00001 500 l1_kh 1 0 1
pp_268_l1 fixed factor 6.00E-01 0.00001 500 l1_kh 1 0 1
pp_270_l1 fixed factor 6.00E-01 0.00001 500 l1_kh 1 0 1
pp_271_l1 fixed factor 6.00E-01 0.00001 500 l1_kh 1 0 1
pp_274_l1 fixed factor 6.00E-01 0.00001 500 l1_kh 1 0 1
pp_275_l1 fixed factor 6.00E-01 0.00001 500 l1_kh 1 0 1
pp_276_l1 fixed factor 6.00E-01 0.00001 500 l1_kh 1 0 1
pp_279_l1 fixed factor 6.00E-01 0.00001 500 l1_kh 1 0 1
pp_280_l1 fixed factor 6.00E-01 0.00001 500 l1_kh 1 0 1
pp_281_l1 fixed factor 6.00E-01 0.00001 500 l1_kh 1 0 1
pp_283_l1 fixed factor 6.00E-01 0.00001 500 l1_kh 1 0 1
pp_284_l1 fixed factor 6.00E-01 0.00001 500 l1_kh 1 0 1
pp_285_l1 fixed factor 6.00E-01 0.00001 500 l1_kh 1 0 1
pp_287_l1 fixed factor 6.00E-01 0.00001 500 l1_kh 1 0 1
pp_288_l1 fixed factor 6.00E-01 0.00001 500 l1_kh 1 0 1
pp_289_l1 fixed factor 6.00E-01 0.00001 500 l1_kh 1 0 1
pp_292_l1 fixed factor 6.00E-01 0.00001 500 l1_kh 1 0 1
pp_293_l1 fixed factor 6.00E-01 0.00001 500 l1_kh 1 0 1
pp_297_l1 fixed factor 6.00E-01 0.00001 500 l1_kh 1 0 1
pp_298_l1 fixed factor 6.00E-01 0.00001 500 l1_kh 1 0 1
pp_299_l1 fixed factor 6.00E-01 0.00001 500 l1_kh 1 0 1
pp_300_l1 fixed factor 6.00E-01 0.00001 500 l1_kh 1 0 1
pp_301_l1 fixed factor 6.00E-01 0.00001 500 l1_kh 1 0 1
pp_304_l1 fixed factor 6.00E-01 0.00001 500 l1_kh 1 0 1
pp_305_l1 fixed factor 6.00E-01 0.00001 500 l1_kh 1 0 1
pp_308_l1 fixed factor 6.00E-01 0.00001 500 l1_kh 1 0 1
pp_310_l1 fixed factor 6.00E-01 0.00001 500 l1_kh 1 0 1
pp_311_l1 fixed factor 6.00E-01 0.00001 500 l1_kh 1 0 1
pp_312_l1 fixed factor 6.00E-01 0.00001 500 l1_kh 1 0 1
pp_314_l1 fixed factor 6.00E-01 0.00001 500 l1_kh 1 0 1
pp_315_l1 fixed factor 6.00E-01 0.00001 500 l1_kh 1 0 1
pp_316_l1 fixed factor 6.00E-01 0.00001 500 l1_kh 1 0 1
pp_317_l1 fixed factor 6.00E-01 0.00001 500 l1_kh 1 0 1