pcf
* control data
restart estimation
   3535    374     17      0       6
      8     21 single  point   1   0   0
  5.0  -3.0   0.3  0.03    10
 15.0  15.0 0.001  0
  0.1
    0  0.01     3     3  0.01     3
    1     1     1
* singular value decomposition
         1
      1000     1E-07
         0
* parameter groups
FINF           relative   0.020  0.0   switch  2.0   parabolic
pET            relative   0.020  0.0   switch  2.0   parabolic
StrmBed        relative   0.020  0.0   switch  2.0   parabolic
L1_Kh          relative   0.020  0.0   switch  2.0   parabolic
L2_Kh_Zn2      relative   0.020  0.0   switch  2.0   parabolic
L2_Kh_Zn3      relative   0.020  0.0   switch  2.0   parabolic
L2_Kh_Zn4      relative   0.020  0.0   switch  2.0   parabolic
L2_Kh_Zn5      relative   0.020  0.0   switch  2.0   parabolic
L2_Kh_Zn6      relative   0.020  0.0   switch  2.0   parabolic
L2_Kh_Zn7      relative   0.020  0.0   switch  2.0   parabolic
L2_Kh_Zn8      relative   0.020  0.0   switch  2.0   parabolic
L2_Kh_Zn9      relative   0.020  0.0   switch  2.0   parabolic
L3_Kh_Zn10     relative   0.020  0.0   switch  2.0   parabolic
SurfK_Alluv    relative   0.020  0.0   switch  2.0   parabolic
SurfK_Mtn      relative   0.020  0.0   switch  2.0   parabolic
vks_alluv      relative   0.020  0.0   switch  2.0   parabolic
vks_mtn        relative   0.020  0.0   switch  2.0   parabolic
* parameter data
finf          log   factor   0.4007903      0.10000    1.000     finf       1.0000    0.0000   1
extdp         log   factor   0.4097178      0.10000    1.000     finf       1.0000    0.0000   1
pet           log   factor   0.5563481      0.50000    1.200      pet       1.0000    0.0000   1
kh_lay_1    fixed   factor    1.041357      0.00010    1000.    l1_kh       1.0000    0.0000   1
srfk_mult     log   factor   1.5268610E-02  0.000100    10.0    surfk_alluv 1.0000    0.0000   1
vks_mult      log   factor    1.803696      0.01        10.0    surfk_alluv 1.0000    0.0000   1
pp_3_l1       log   factor   0.3839022      0.00001    500.0    l1_kh       1.0000    0.0000   1
pp_4_l1       log   factor   0.1338794      0.00001    500.0    l1_kh       1.0000    0.0000   1
pp_9_l1       log   factor   3.2815500E-02  0.00001    500.0    l1_kh       1.0000    0.0000   1
pp_10_l1      log   factor    10.00000      0.00001    500.0    l1_kh       1.0000    0.0000   1
pp_12_l1      log   factor   0.1066998      0.00001    500.0    l1_kh       1.0000    0.0000   1
pp_16_l1      log   factor   0.3139582      0.00001    500.0    l1_kh       1.0000    0.0000   1
pp_17_l1      log   factor   4.0505100E-02  0.00001    500.0    l1_kh       1.0000    0.0000   1
pp_18_l1      log   factor   0.1362451      0.00001    500.0    l1_kh       1.0000    0.0000   1
pp_23_l1      log   factor    10.00000      0.00001    500.0    l1_kh       1.0000    0.0000   1
pp_24_l1      log   factor    9.389014      0.00001    500.0    l1_kh       1.0000    0.0000   1
pp_26_l1      log   factor   0.1863251      0.00001    500.0    l1_kh       1.0000    0.0000   1
pp_27_l1      log   factor   0.2636710      0.00001    500.0    l1_kh       1.0000    0.0000   1
pp_29_l1      log   factor    9.996434      0.00001    500.0    l1_kh       1.0000    0.0000   1
pp_30_l1      log   factor   0.1461891      0.00001    500.0    l1_kh       1.0000    0.0000   1
pp_34_l1      log   factor   9.5446500E-02  0.00001    500.0    l1_kh       1.0000    0.0000   1
pp_35_l1      log   factor   8.7982000E-02  0.00001    500.0    l1_kh       1.0000    0.0000   1
pp_36_l1      log   factor    9.989888      0.00001    500.0    l1_kh       1.0000    0.0000   1
pp_39_l1      log   factor   0.6563416      0.00001    500.0    l1_kh       1.0000    0.0000   1
pp_41_l1      log   factor    2.733496      0.00001    500.0    l1_kh       1.0000    0.0000   1
pp_42_l1      log   factor    10.00000      0.00001    500.0    l1_kh       1.0000    0.0000   1
pp_45_l1      log   factor   3.1827800E-02  0.00001    500.0    l1_kh       1.0000    0.0000   1
pp_47_l1      log   factor   0.2333134      0.00001    500.0    l1_kh       1.0000    0.0000   1
pp_50_l1      log   factor   0.4350952      0.00001    500.0    l1_kh       1.0000    0.0000   1
pp_51_l1      log   factor   7.0575300E-02  0.00001    500.0    l1_kh       1.0000    0.0000   1
pp_54_l1      log   factor   0.5780364      0.00001    500.0    l1_kh       1.0000    0.0000   1
pp_56_l1      log   factor   6.9701700E-02  0.00001    500.0    l1_kh       1.0000    0.0000   1
pp_58_l1      log   factor   0.2616630      0.00001    500.0    l1_kh       1.0000    0.0000   1
pp_61_l1      log   factor   0.1562814      0.00001    500.0    l1_kh       1.0000    0.0000   1
pp_63_l1      log   factor   0.2059194      0.00001    500.0    l1_kh       1.0000    0.0000   1
pp_68_l1      log   factor   6.7111400E-02  0.00001    500.0    l1_kh       1.0000    0.0000   1
pp_71_l1      log   factor   0.3051826      0.00001    500.0    l1_kh       1.0000    0.0000   1
pp_77_l1      log   factor   6.5056100E-02  0.00001    500.0    l1_kh       1.0000    0.0000   1
pp_78_l1      log   factor   0.1257017      0.00001    500.0    l1_kh       1.0000    0.0000   1
pp_82_l1      log   factor   0.5720864      0.00001    500.0    l1_kh       1.0000    0.0000   1
pp_88_l1      log   factor   0.1088677      0.00001    500.0    l1_kh       1.0000    0.0000   1
pp_90_l1      log   factor   0.1263496      0.00001    500.0    l1_kh       1.0000    0.0000   1
pp_91_l1      log   factor   0.1832418      0.00001    500.0    l1_kh       1.0000    0.0000   1
pp_93_l1      log   factor   0.1609229      0.00001    500.0    l1_kh       1.0000    0.0000   1
pp_94_l1      log   factor   0.1044969      0.00001    500.0    l1_kh       1.0000    0.0000   1
pp_95_l1      log   factor   0.1043847      0.00001    500.0    l1_kh       1.0000    0.0000   1
pp_96_l1      log   factor   0.4133526      0.00001    500.0    l1_kh       1.0000    0.0000   1
pp_98_l1      log   factor   0.1578899      0.00001    500.0    l1_kh       1.0000    0.0000   1
pp_99_l1      log   factor   0.1478995      0.00001    500.0    l1_kh       1.0000    0.0000   1
pp_101_l1     log   factor   0.2450632      0.00001    500.0    l1_kh       1.0000    0.0000   1
pp_103_l1     log   factor   0.1600003      0.00001    500.0    l1_kh       1.0000    0.0000   1
pp_105_l1     log   factor   8.4891800E-02  0.00001    500.0    l1_kh       1.0000    0.0000   1
pp_107_l1     log   factor   0.1451643      0.00001    500.0    l1_kh       1.0000    0.0000   1
pp_108_l1     log   factor   3.3624000E-03  0.00001    500.0    l1_kh       1.0000    0.0000   1
pp_110_l1     log   factor   0.1086557      0.00001    500.0    l1_kh       1.0000    0.0000   1
pp_114_l1     log   factor   0.1316027      0.00001    500.0    l1_kh       1.0000    0.0000   1
pp_117_l1     log   factor   8.2786100E-02  0.00001    500.0    l1_kh       1.0000    0.0000   1
pp_119_l1     log   factor   9.2823400E-02  0.00001    500.0    l1_kh       1.0000    0.0000   1
pp_122_l1     log   factor   0.1117282      0.00001    500.0    l1_kh       1.0000    0.0000   1
pp_125_l1     log   factor   4.1936100E-02  0.00001    500.0    l1_kh       1.0000    0.0000   1
pp_126_l1     log   factor   9.1604900E-02  0.00001    500.0    l1_kh       1.0000    0.0000   1
pp_127_l1     log   factor   9.7404500E-02  0.00001    500.0    l1_kh       1.0000    0.0000   1
pp_128_l1     log   factor   7.2596300E-02  0.00001    500.0    l1_kh       1.0000    0.0000   1
pp_129_l1     log   factor   4.3937700E-02  0.00001    500.0    l1_kh       1.0000    0.0000   1
pp_135_l1     log   factor   9.1165000E-02  0.00001    500.0    l1_kh       1.0000    0.0000   1
pp_142_l1     log   factor   7.9058800E-02  0.00001    500.0    l1_kh       1.0000    0.0000   1
pp_145_l1     log   factor   6.2026000E-02  0.00001    500.0    l1_kh       1.0000    0.0000   1
pp_148_l1     log   factor   7.4854300E-02  0.00001    500.0    l1_kh       1.0000    0.0000   1
pp_152_l1     log   factor   8.5305000E-02  0.00001    500.0    l1_kh       1.0000    0.0000   1
pp_153_l1     log   factor   0.1062379      0.00001    500.0    l1_kh       1.0000    0.0000   1
pp_155_l1     log   factor   0.1072255      0.00001    500.0    l1_kh       1.0000    0.0000   1
pp_159_l1     log   factor   9.1958400E-02  0.00001    500.0    l1_kh       1.0000    0.0000   1
pp_160_l1     log   factor   9.4350800E-02  0.00001    500.0    l1_kh       1.0000    0.0000   1
pp_164_l1     log   factor   0.1043826      0.00001    500.0    l1_kh       1.0000    0.0000   1
pp_166_l1     log   factor   0.1063405      0.00001    500.0    l1_kh       1.0000    0.0000   1
pp_167_l1     log   factor   0.1136750      0.00001    500.0    l1_kh       1.0000    0.0000   1
pp_168_l1     log   factor   0.1309139      0.00001    500.0    l1_kh       1.0000    0.0000   1
pp_170_l1     log   factor   0.1261228      0.00001    500.0    l1_kh       1.0000    0.0000   1
pp_174_l1     log   factor   9.6768800E-02  0.00001    500.0    l1_kh       1.0000    0.0000   1
pp_179_l1     log   factor   0.1052038      0.00001    500.0    l1_kh       1.0000    0.0000   1
pp_182_l1     log   factor   0.1581895      0.00001    500.0    l1_kh       1.0000    0.0000   1
pp_187_l1     log   factor   0.1294742      0.00001    500.0    l1_kh       1.0000    0.0000   1
pp_189_l1     log   factor   0.1133152      0.00001    500.0    l1_kh       1.0000    0.0000   1
pp_190_l1     log   factor   9.1716500E-02  0.00001    500.0    l1_kh       1.0000    0.0000   1
pp_191_l1     log   factor   7.7280700E-02  0.00001    500.0    l1_kh       1.0000    0.0000   1
pp_193_l1     log   factor   0.1091872      0.00001    500.0    l1_kh       1.0000    0.0000   1
pp_198_l1     log   factor   0.2135330      0.00001    500.0    l1_kh       1.0000    0.0000   1
pp_200_l1     log   factor   2.4212400E-02  0.00001    500.0    l1_kh       1.0000    0.0000   1
pp_201_l1     log   factor   9.6540400E-02  0.00001    500.0    l1_kh       1.0000    0.0000   1
pp_202_l1     log   factor   8.0925300E-02  0.00001    500.0    l1_kh       1.0000    0.0000   1
pp_205_l1     log   factor   0.1033882      0.00001    500.0    l1_kh       1.0000    0.0000   1
pp_206_l1     log   factor   0.1087625      0.00001    500.0    l1_kh       1.0000    0.0000   1
pp_207_l1     log   factor   9.9608000E-02  0.00001    500.0    l1_kh       1.0000    0.0000   1
pp_208_l1     log   factor   9.8268400E-02  0.00001    500.0    l1_kh       1.0000    0.0000   1
pp_209_l1     log   factor   7.3873900E-02  0.00001    500.0    l1_kh       1.0000    0.0000   1
pp_210_l1     log   factor   0.1044841      0.00001    500.0    l1_kh       1.0000    0.0000   1
pp_212_l1     log   factor   0.1257014      0.00001    500.0    l1_kh       1.0000    0.0000   1
pp_214_l1     log   factor   0.1011528      0.00001    500.0    l1_kh       1.0000    0.0000   1
pp_215_l1     log   factor   0.1052635      0.00001    500.0    l1_kh       1.0000    0.0000   1
pp_216_l1     log   factor   0.1661223      0.00001    500.0    l1_kh       1.0000    0.0000   1
pp_217_l1     log   factor   9.8514900E-02  0.00001    500.0    l1_kh       1.0000    0.0000   1
pp_218_l1     log   factor   0.1008587      0.00001    500.0    l1_kh       1.0000    0.0000   1
pp_219_l1     log   factor   0.1115134      0.00001    500.0    l1_kh       1.0000    0.0000   1
pp_222_l1     log   factor   8.2823600E-02  0.00001    500.0    l1_kh       1.0000    0.0000   1
pp_224_l1     log   factor   0.1210567      0.00001    500.0    l1_kh       1.0000    0.0000   1
pp_225_l1     log   factor   0.1041726      0.00001    500.0    l1_kh       1.0000    0.0000   1
pp_226_l1     log   factor   9.6566500E-02  0.00001    500.0    l1_kh       1.0000    0.0000   1
pp_227_l1     log   factor   0.1201291      0.00001    500.0    l1_kh       1.0000    0.0000   1
pp_229_l1     log   factor   6.8495200E-02  0.00001    500.0    l1_kh       1.0000    0.0000   1
pp_233_l1     log   factor   0.1131873      0.00001    500.0    l1_kh       1.0000    0.0000   1
pp_235_l1     log   factor   0.1293384      0.00001    500.0    l1_kh       1.0000    0.0000   1
pp_236_l1     log   factor   0.3190274      0.00001    500.0    l1_kh       1.0000    0.0000   1
pp_237_l1     log   factor   0.8950712      0.00001    500.0    l1_kh       1.0000    0.0000   1
pp_241_l1     log   factor   0.1934337      0.00001    500.0    l1_kh       1.0000    0.0000   1
pp_242_l1     log   factor   3.3688300E-02  0.00001    500.0    l1_kh       1.0000    0.0000   1
pp_243_l1     log   factor   0.1502494      0.00001    500.0    l1_kh       1.0000    0.0000   1
pp_245_l1     log   factor   7.7295700E-02  0.00001    500.0    l1_kh       1.0000    0.0000   1
pp_246_l1     log   factor   4.8263100E-02  0.00001    500.0    l1_kh       1.0000    0.0000   1
pp_247_l1     log   factor   1.3613200E-02  0.00001    500.0    l1_kh       1.0000    0.0000   1
pp_251_l1     log   factor   0.1368342      0.00001    500.0    l1_kh       1.0000    0.0000   1
pp_252_l1     log   factor   8.3787800E-02  0.00001    500.0    l1_kh       1.0000    0.0000   1
pp_253_l1     log   factor   0.2154594      0.00001    500.0    l1_kh       1.0000    0.0000   1
pp_254_l1     log   factor   0.2638236      0.00001    500.0    l1_kh       1.0000    0.0000   1
pp_255_l1     log   factor   0.1088887      0.00001    500.0    l1_kh       1.0000    0.0000   1
pp_257_l1     log   factor   0.1934000      0.00001    500.0    l1_kh       1.0000    0.0000   1
pp_258_l1     log   factor   0.2153612      0.00001    500.0    l1_kh       1.0000    0.0000   1
pp_259_l1     log   factor   0.5219272      0.00001    500.0    l1_kh       1.0000    0.0000   1
pp_260_l1     log   factor   0.2143934      0.00001    500.0    l1_kh       1.0000    0.0000   1
pp_264_l1     log   factor   3.1810600E-02  0.00001    500.0    l1_kh       1.0000    0.0000   1
pp_269_l1     log   factor   0.1139398      0.00001    500.0    l1_kh       1.0000    0.0000   1
pp_272_l1     log   factor   3.9837100E-02  0.00001    500.0    l1_kh       1.0000    0.0000   1
pp_273_l1     log   factor   0.5433104      0.00001    500.0    l1_kh       1.0000    0.0000   1
pp_277_l1     log   factor   0.1397527      0.00001    500.0    l1_kh       1.0000    0.0000   1
pp_278_l1     log   factor   0.1108674      0.00001    500.0    l1_kh       1.0000    0.0000   1
pp_282_l1     log   factor   6.4114700E-02  0.00001    500.0    l1_kh       1.0000    0.0000   1
pp_286_l1     log   factor   6.9424100E-02  0.00001    500.0    l1_kh       1.0000    0.0000   1
pp_290_l1     log   factor   9.2537600E-02  0.00001    500.0    l1_kh       1.0000    0.0000   1
pp_291_l1     log   factor   4.3323300E-02  0.00001    500.0    l1_kh       1.0000    0.0000   1
pp_294_l1     log   factor   4.9255800E-02  0.00001    500.0    l1_kh       1.0000    0.0000   1
pp_295_l1     log   factor   0.4354184      0.00001    500.0    l1_kh       1.0000    0.0000   1
pp_296_l1     log   factor   0.1256156      0.00001    500.0    l1_kh       1.0000    0.0000   1
pp_302_l1     log   factor   0.6109570      0.00001    500.0    l1_kh       1.0000    0.0000   1
pp_303_l1     log   factor   8.4931800E-02  0.00001    500.0    l1_kh       1.0000    0.0000   1
pp_306_l1     log   factor   0.2115732      0.00001    500.0    l1_kh       1.0000    0.0000   1
pp_307_l1     log   factor   0.2059642      0.00001    500.0    l1_kh       1.0000    0.0000   1
pp_309_l1     log   factor   2.3512400E-02  0.00001    500.0    l1_kh       1.0000    0.0000   1
pp_313_l1     log   factor   8.1165500E-02  0.00001    500.0    l1_kh       1.0000    0.0000   1
pp_318_l1     log   factor   0.3020504      0.00001    500.0    l1_kh       1.0000    0.0000   1
pp_321_l1     log   factor   0.1574779      0.00001    500.0    l1_kh       1.0000    0.0000   1
pp_323_l1     log   factor   4.3928300E-02  0.00001    500.0    l1_kh       1.0000    0.0000   1
pp_324_l1     log   factor   0.1426639      0.00001    500.0    l1_kh       1.0000    0.0000   1
pp_325_l1     log   factor   3.1978400E-02  0.00001    500.0    l1_kh       1.0000    0.0000   1
pp_330_l1     log   factor   0.1586592      0.00001    500.0    l1_kh       1.0000    0.0000   1
pp_340_l1     log   factor   0.1395602      0.00001    500.0    l1_kh       1.0000    0.0000   1
pp_342_l1     log   factor   9.2988000E-02  0.00001    500.0    l1_kh       1.0000    0.0000   1
pp_344_l1     log   factor   0.1027529      0.00001    500.0    l1_kh       1.0000    0.0000   1
pp_345_l1     log   factor   9.4700000E-02  0.00001    500.0    l1_kh       1.0000    0.0000   1
pp_347_l1     log   factor   0.1462453      0.00001    500.0    l1_kh       1.0000    0.0000   1
pp_348_l1     log   factor   1.4946100E-02  0.00001    500.0    l1_kh       1.0000    0.0000   1
pp_352_l1     log   factor    1.526265      0.00001    500.0    l1_kh       1.0000    0.0000   1
pp_355_l1     log   factor   1.0411200E-02  0.00001    500.0    l1_kh       1.0000    0.0000   1
pp_358_l1     log   factor   0.2395528      0.00001    500.0    l1_kh       1.0000    0.0000   1
pp_366_l1     log   factor   0.5545908      0.00001    500.0    l1_kh       1.0000    0.0000   1
pp_370_l1     log   factor   6.4644000E-03  0.00001    500.0    l1_kh       1.0000    0.0000   1
pp_372_l1     log   factor   0.1439325      0.00001    500.0    l1_kh       1.0000    0.0000   1
pp_374_l1     log   factor   0.1844996      0.00001    500.0    l1_kh       1.0000    0.0000   1
pp_376_l1     log   factor   0.1137437      0.00001    500.0    l1_kh       1.0000    0.0000   1
pp_377_l1     log   factor   0.3145404      0.00001    500.0    l1_kh       1.0000    0.0000   1
pp_378_l1     log   factor   0.1330757      0.00001    500.0    l1_kh       1.0000    0.0000   1
pp_379_l1     log   factor   1.7194400E-02  0.00001    500.0    l1_kh       1.0000    0.0000   1
pp_380_l1     log   factor   5.4906000E-03  0.00001    500.0    l1_kh       1.0000    0.0000   1
pp_381_l1     log   factor   0.1587322      0.00001    500.0    l1_kh       1.0000    0.0000   1
pp_382_l1     log   factor   0.1073907      0.00001    500.0    l1_kh       1.0000    0.0000   1
pp_383_l1     log   factor   0.1150554      0.00001    500.0    l1_kh       1.0000    0.0000   1
pp_384_l1     log   factor   0.2354668      0.00001    500.0    l1_kh       1.0000    0.0000   1
pp_387_l1     log   factor   0.1473588      0.00001    500.0    l1_kh       1.0000    0.0000   1
pp_388_l1     log   factor   0.2195198      0.00001    500.0    l1_kh       1.0000    0.0000   1
pp_389_l1     log   factor   0.1709849      0.00001    500.0    l1_kh       1.0000    0.0000   1
pp_390_l1     log   factor   0.1135269      0.00001    500.0    l1_kh       1.0000    0.0000   1
pp_392_l1     log   factor   7.7560900E-02  0.00001    500.0    l1_kh       1.0000    0.0000   1
pp_394_l1     log   factor   3.1686000E-03  0.00001    500.0    l1_kh       1.0000    0.0000   1
pp_396_l1     log   factor   0.1660222      0.00001    500.0    l1_kh       1.0000    0.0000   1
pp_397_l1     log   factor   0.1011495      0.00001    500.0    l1_kh       1.0000    0.0000   1
pp_398_l1     log   factor   0.2852984      0.00001    500.0    l1_kh       1.0000    0.0000   1
pp_399_l1     log   factor   0.6483118      0.00001    500.0    l1_kh       1.0000    0.0000   1
pp_401_l1     log   factor   0.1623587      0.00001    500.0    l1_kh       1.0000    0.0000   1
pp_402_l1     log   factor   8.7045800E-02  0.00001    500.0    l1_kh       1.0000    0.0000   1
pp_403_l1     log   factor   0.5870158      0.00001    500.0    l1_kh       1.0000    0.0000   1
pp_404_l1     log   factor    10.00000      0.00001    500.0    l1_kh       1.0000    0.0000   1
pp_406_l1     log   factor   0.1375693      0.00001    500.0    l1_kh       1.0000    0.0000   1
pp_407_l1     log   factor   0.9398806      0.00001    500.0    l1_kh       1.0000    0.0000   1
pp_409_l1     log   factor   0.1167652      0.00001    500.0    l1_kh       1.0000    0.0000   1
pp_410_l1     log   factor   0.1531812      0.00001    500.0    l1_kh       1.0000    0.0000   1
pp_411_l1     log   factor   4.4289700E-02  0.00001    500.0    l1_kh       1.0000    0.0000   1
pp_412_l1     log   factor   0.1527017      0.00001    500.0    l1_kh       1.0000    0.0000   1
pp_417_l1     log   factor   0.1018787      0.00001    500.0    l1_kh       1.0000    0.0000   1
pp_419_l1     log   factor   5.5994300E-02  0.00001    500.0    l1_kh       1.0000    0.0000   1
pp_420_l1     log   factor   0.2274818      0.00001    500.0    l1_kh       1.0000    0.0000   1
pp_421_l1     log   factor   0.1852498      0.00001    500.0    l1_kh       1.0000    0.0000   1
pp_422_l1     log   factor   0.1298907      0.00001    500.0    l1_kh       1.0000    0.0000   1
pp_423_l1     log   factor   9.1061500E-02  0.00001    500.0    l1_kh       1.0000    0.0000   1
pp_424_l1     log   factor   9.0078100E-02  0.00001    500.0    l1_kh       1.0000    0.0000   1
pp_425_l1     log   factor   0.1586357      0.00001    500.0    l1_kh       1.0000    0.0000   1
pp_426_l1     log   factor   0.9590584      0.00001    500.0    l1_kh       1.0000    0.0000   1
pp_428_l1     log   factor   0.1454324      0.00001    500.0    l1_kh       1.0000    0.0000   1
pp_429_l1     log   factor   0.2769640      0.00001    500.0    l1_kh       1.0000    0.0000   1
pp_430_l1     log   factor   0.1754585      0.00001    500.0    l1_kh       1.0000    0.0000   1
pp_432_l1     log   factor   0.2757918      0.00001    500.0    l1_kh       1.0000    0.0000   1
pp_433_l1     log   factor   0.2845196      0.00001    500.0    l1_kh       1.0000    0.0000   1
pp_434_l1     log   factor    10.00000      0.00001    500.0    l1_kh       1.0000    0.0000   1
pp_435_l1     log   factor   0.4852146      0.00001    500.0    l1_kh       1.0000    0.0000   1
pp_436_l1     log   factor   7.5664100E-02  0.00001    500.0    l1_kh       1.0000    0.0000   1
pp_438_l1     log   factor   6.6566200E-02  0.00001    500.0    l1_kh       1.0000    0.0000   1
pp_442_l1     log   factor   0.1875540      0.00001    500.0    l1_kh       1.0000    0.0000   1
pp_444_l1     log   factor   0.1265568      0.00001    500.0    l1_kh       1.0000    0.0000   1
pp_445_l1     log   factor   9.4645100E-02  0.00001    500.0    l1_kh       1.0000    0.0000   1
pp_446_l1     log   factor   0.1261161      0.00001    500.0    l1_kh       1.0000    0.0000   1
pp_447_l1     log   factor   0.1414807      0.00001    500.0    l1_kh       1.0000    0.0000   1
pp_448_l1     log   factor   8.5000500E-02  0.00001    500.0    l1_kh       1.0000    0.0000   1
pp_450_l1     log   factor   0.2697844      0.00001    500.0    l1_kh       1.0000    0.0000   1
pp_455_l1     log   factor   7.6300800E-02  0.00001    500.0    l1_kh       1.0000    0.0000   1
pp_456_l1     log   factor    10.00000      0.00001    500.0    l1_kh       1.0000    0.0000   1
pp_458_l1     log   factor   0.4680462      0.00001    500.0    l1_kh       1.0000    0.0000   1
pp_459_l1     log   factor   0.2985134      0.00001    500.0    l1_kh       1.0000    0.0000   1
pp_460_l1     log   factor   5.3303000E-02  0.00001    500.0    l1_kh       1.0000    0.0000   1
pp_461_l1     log   factor   0.1567770      0.00001    500.0    l1_kh       1.0000    0.0000   1
pp_462_l1     log   factor   0.1226538      0.00001    500.0    l1_kh       1.0000    0.0000   1
pp_463_l1     log   factor    10.00000      0.00001    500.0    l1_kh       1.0000    0.0000   1
pp_464_l1     log   factor   3.8966100E-02  0.00001    500.0    l1_kh       1.0000    0.0000   1
pp_466_l1     log   factor   8.6943800E-02  0.00001    500.0    l1_kh       1.0000    0.0000   1
pp_468_l1     log   factor   0.1896561      0.00001    500.0    l1_kh       1.0000    0.0000   1
pp_471_l1     log   factor   0.3156476      0.00001    500.0    l1_kh       1.0000    0.0000   1
pp_472_l1     log   factor    2.196030      0.00001    500.0    l1_kh       1.0000    0.0000   1
pp_475_l1     log   factor   0.1015320      0.00001    500.0    l1_kh       1.0000    0.0000   1
pp_483_l1     log   factor   0.1958449      0.00001    500.0    l1_kh       1.0000    0.0000   1
pp_484_l1     log   factor   0.2802944      0.00001    500.0    l1_kh       1.0000    0.0000   1
pp_485_l1     log   factor    10.00000      0.00001    500.0    l1_kh       1.0000    0.0000   1
pp_486_l1     log   factor    10.00000      0.00001    500.0    l1_kh       1.0000    0.0000   1
pp_488_l1     log   factor   0.3808910      0.00001    500.0    l1_kh       1.0000    0.0000   1
pp_490_l1     log   factor   0.1565844      0.00001    500.0    l1_kh       1.0000    0.0000   1
pp_493_l1     log   factor   0.1194138      0.00001    500.0    l1_kh       1.0000    0.0000   1
pp_495_l1     log   factor   0.4778824      0.00001    500.0    l1_kh       1.0000    0.0000   1
pp_496_l1     log   factor   0.2977630      0.00001    500.0    l1_kh       1.0000    0.0000   1
pp_497_l1     log   factor   0.8638948      0.00001    500.0    l1_kh       1.0000    0.0000   1
pp_498_l1     log   factor   9.8884400E-02  0.00001    500.0    l1_kh       1.0000    0.0000   1
pp_500_l1     log   factor   7.4209100E-02  0.00001    500.0    l1_kh       1.0000    0.0000   1
pp_502_l1     log   factor   6.5233700E-02  0.00001    500.0    l1_kh       1.0000    0.0000   1
pp_504_l1     log   factor   0.1280401      0.00001    500.0    l1_kh       1.0000    0.0000   1
pp_506_l1     log   factor   8.0119200E-02  0.00001    500.0    l1_kh       1.0000    0.0000   1
pp_510_l1     log   factor   9.7874400E-02  0.00001    500.0    l1_kh       1.0000    0.0000   1
pp_511_l1     log   factor   0.1073463      0.00001    500.0    l1_kh       1.0000    0.0000   1
pp_512_l1     log   factor   0.1709811      0.00001    500.0    l1_kh       1.0000    0.0000   1
pp_513_l1     log   factor   9.3421100E-02  0.00001    500.0    l1_kh       1.0000    0.0000   1
pp_515_l1     log   factor   0.1066501      0.00001    500.0    l1_kh       1.0000    0.0000   1
pp_517_l1     log   factor   0.1569344      0.00001    500.0    l1_kh       1.0000    0.0000   1
pp_518_l1     log   factor   0.1317734      0.00001    500.0    l1_kh       1.0000    0.0000   1
pp_519_l1     log   factor   9.5290900E-02  0.00001    500.0    l1_kh       1.0000    0.0000   1
pp_521_l1     log   factor   8.0684700E-02  0.00001    500.0    l1_kh       1.0000    0.0000   1
pp_522_l1     log   factor   9.6260000E-02  0.00001    500.0    l1_kh       1.0000    0.0000   1
pp_523_l1     log   factor   9.4189700E-02  0.00001    500.0    l1_kh       1.0000    0.0000   1
pp_524_l1     log   factor   0.1052690      0.00001    500.0    l1_kh       1.0000    0.0000   1
pp_526_l1     log   factor   6.8525000E-02  0.00001    500.0    l1_kh       1.0000    0.0000   1
pp_529_l1     log   factor   0.1101263      0.00001    500.0    l1_kh       1.0000    0.0000   1
pp_530_l1     log   factor   0.1441559      0.00001    500.0    l1_kh       1.0000    0.0000   1
pp_531_l1     log   factor   0.1449510      0.00001    500.0    l1_kh       1.0000    0.0000   1
pp_538_l1     log   factor   9.0216600E-02  0.00001    500.0    l1_kh       1.0000    0.0000   1
pp_543_l1     log   factor   6.3382000E-02  0.00001    500.0    l1_kh       1.0000    0.0000   1
pp_550_l1     log   factor   0.1093584      0.00001    500.0    l1_kh       1.0000    0.0000   1
pp_551_l1     log   factor   0.1395309      0.00001    500.0    l1_kh       1.0000    0.0000   1
pp_552_l1     log   factor   9.5857300E-02  0.00001    500.0    l1_kh       1.0000    0.0000   1
pp_554_l1     log   factor   0.1293517      0.00001    500.0    l1_kh       1.0000    0.0000   1
pp_555_l1     log   factor   8.7026100E-02  0.00001    500.0    l1_kh       1.0000    0.0000   1
pp_556_l1     log   factor   0.1151750      0.00001    500.0    l1_kh       1.0000    0.0000   1
pp_557_l1     log   factor   0.1374238      0.00001    500.0    l1_kh       1.0000    0.0000   1
pp_558_l1     log   factor   0.2128454      0.00001    500.0    l1_kh       1.0000    0.0000   1
pp_565_l1     log   factor   0.2688252      0.00001    500.0    l1_kh       1.0000    0.0000   1
pp_566_l1     log   factor    1.711914      0.00001    500.0    l1_kh       1.0000    0.0000   1
pp_568_l1     log   factor   0.1140920      0.00001    500.0    l1_kh       1.0000    0.0000   1
pp_572_l1     log   factor   0.1090430      0.00001    500.0    l1_kh       1.0000    0.0000   1
pp_576_l1     log   factor   0.1167931      0.00001    500.0    l1_kh       1.0000    0.0000   1
pp_577_l1     log   factor   0.1102902      0.00001    500.0    l1_kh       1.0000    0.0000   1
pp_578_l1     log   factor   6.1329400E-02  0.00001    500.0    l1_kh       1.0000    0.0000   1
pp_579_l1     log   factor   4.4231400E-02  0.00001    500.0    l1_kh       1.0000    0.0000   1
pp_580_l1     log   factor   8.8620700E-02  0.00001    500.0    l1_kh       1.0000    0.0000   1
pp_581_l1     log   factor   0.1526684      0.00001    500.0    l1_kh       1.0000    0.0000   1
pp_582_l1     log   factor   0.2657774      0.00001    500.0    l1_kh       1.0000    0.0000   1
pp_584_l1     log   factor   0.2932410      0.00001    500.0    l1_kh       1.0000    0.0000   1
pp_587_l1     log   factor   0.1053870      0.00001    500.0    l1_kh       1.0000    0.0000   1
pp_588_l1     log   factor   0.1250334      0.00001    500.0    l1_kh       1.0000    0.0000   1
pp_590_l1     log   factor   4.7751400E-02  0.00001    500.0    l1_kh       1.0000    0.0000   1
pp_591_l1     log   factor   5.1303700E-02  0.00001    500.0    l1_kh       1.0000    0.0000   1
pp_592_l1     log   factor   0.1601934      0.00001    500.0    l1_kh       1.0000    0.0000   1
pp_593_l1     log   factor   0.2860422      0.00001    500.0    l1_kh       1.0000    0.0000   1
pp_594_l1     log   factor   0.2097588      0.00001    500.0    l1_kh       1.0000    0.0000   1