pcf
* control data
restart estimation
 3535   203     17      0   9
    8    21 single  point   1    0 0
  5.0  -3.0    0.3   0.03  10
 15.0  15.0  0.001      0
  0.1
    0  0.01      3      3  0.01    3
    1     1      1
* singular value decomposition
   1
  1000   1E-07
   0
* parameter groups
FINF                relative     0.020            0.0         switch            2.0      parabolic
pET                 relative     0.020            0.0         switch            2.0      parabolic
StrmBed             relative     0.020            0.0         switch            2.0      parabolic
L1_Kh               relative     0.020            0.0         switch            2.0      parabolic
L2_Kh_Zn2           relative     0.020            0.0         switch            2.0      parabolic
L2_Kh_Zn3           relative     0.020            0.0         switch            2.0      parabolic
L2_Kh_Zn4           relative     0.020            0.0         switch            2.0      parabolic
L2_Kh_Zn5           relative     0.020            0.0         switch            2.0      parabolic
L2_Kh_Zn6           relative     0.020            0.0         switch            2.0      parabolic
L2_Kh_Zn7           relative     0.020            0.0         switch            2.0      parabolic
L2_Kh_Zn8           relative     0.020            0.0         switch            2.0      parabolic
L2_Kh_Zn9           relative     0.020            0.0         switch            2.0      parabolic
L3_Kh_Zn10          relative     0.020            0.0         switch            2.0      parabolic
SurfK_Alluv         relative     0.020            0.0         switch            2.0      parabolic
SurfK_Mtn           relative     0.020            0.0         switch            2.0      parabolic
vks_alluv           relative     0.020            0.0         switch            2.0      parabolic
vks_mtn             relative     0.020            0.0         switch            2.0      parabolic
* parameter data
finf            log    factor   0.4007903      0.1                  1           finf    1    0    1
extdp           log    factor   0.4097178      0.1                  1           finf    1    0    1
pet             log    factor   0.5563481      0.5                1.2            pet    1    0    1
kh_lay_1      fixed    factor    1.041357      0.0001            1000          l1_kh    1    0    1
srfk_mult       log    factor   1.5299993E-02  0.0001              10    surfk_alluv    1    0    1
vks_mult        log    factor    1.803696      0.01                10    surfk_alluv    1    0    1
pp_3_l1         log    factor   7.6780442E-02  0.00001            500          l1_kh    1    0    1
pp_4_l1         log    factor   2.6775858E-02  0.00001            500          l1_kh    1    0    1
pp_9_l1         log    factor   6.5631120E-03  0.00001            500          l1_kh    1    0    1
pp_10_l1        log    factor    2.000002      0.00001            500          l1_kh    1    0    1
pp_12_l1        log    factor   2.1339959E-02  0.00001            500          l1_kh    1    0    1
pp_16_l1        log    factor   6.2791672E-02  0.00001            500          l1_kh    1    0    1
pp_17_l1        log    factor   8.1010105E-03  0.00001            500          l1_kh    1    0    1
pp_18_l1        log    factor   2.7249021E-02  0.00001            500          l1_kh    1    0    1
pp_23_l1        log    factor    2.000003      0.00001            500          l1_kh    1    0    1
pp_24_l1        log    factor    1.877803      0.00001            500          l1_kh    1    0    1
pp_26_l1        log    factor   3.7263999E-02  0.00001            500          l1_kh    1    0    1
pp_27_l1        log    factor   5.2734402E-02  0.00001            500          l1_kh    1    0    1
pp_29_l1        log    factor    1.999288      0.00001            500          l1_kh    1    0    1
pp_30_l1        log    factor   2.9237634E-02  0.00001            500          l1_kh    1    0    1
pp_34_l1        log    factor   1.9089332E-02  0.00001            500          l1_kh    1    0    1
pp_35_l1        log    factor   1.7558054E-02  0.00001            500          l1_kh    1    0    1
pp_36_l1        log    factor    1.997972      0.00001            500          l1_kh    1    0    1
pp_39_l1        log    factor   0.1312696      0.00001            500          l1_kh    1    0    1
pp_41_l1        log    factor   0.5467011      0.00001            500          l1_kh    1    0    1
pp_42_l1        log    factor    2.000003      0.00001            500          l1_kh    1    0    1
pp_45_l1        log    factor   6.3655743E-03  0.00001            500          l1_kh    1    0    1
pp_47_l1        log    factor   4.6663091E-02  0.00001            500          l1_kh    1    0    1
pp_50_l1        log    factor   8.7019671E-02  0.00001            500          l1_kh    1    0    1
pp_51_l1        log    factor   1.4115064E-02  0.00001            500          l1_kh    1    0    1
pp_54_l1        log    factor   0.1156078      0.00001            500          l1_kh    1    0    1
pp_56_l1        log    factor   1.3940118E-02  0.00001            500          l1_kh    1    0    1
pp_58_l1        log    factor   5.2332422E-02  0.00001            500          l1_kh    1    0    1
pp_61_l1        log    factor   3.1255541E-02  0.00001            500          l1_kh    1    0    1
pp_63_l1        log    factor   4.1184024E-02  0.00001            500          l1_kh    1    0    1
pp_68_l1        log    factor   1.3422373E-02  0.00001            500          l1_kh    1    0    1
pp_71_l1        log    factor   6.1036532E-02  0.00001            500          l1_kh    1    0    1
pp_77_l1        log    factor   1.3011429E-02  0.00001            500          l1_kh    1    0    1
pp_78_l1        log    factor   2.5140117E-02  0.00001            500          l1_kh    1    0    1
pp_82_l1        log    factor   0.1144173      0.00001            500          l1_kh    1    0    1
pp_88_l1        log    factor   2.1773177E-02  0.00001            500          l1_kh    1    0    1
pp_90_l1        log    factor   2.5268063E-02  0.00001            500          l1_kh    1    0    1
pp_91_l1        log    factor   3.6648263E-02  0.00001            500          l1_kh    1    0    1
pp_93_l1        log    factor   3.2184592E-02  0.00001            500          l1_kh    1    0    1
pp_94_l1        log    factor   2.0899373E-02  0.00001            500          l1_kh    1    0    1
pp_95_l1        log    factor   2.0876896E-02  0.00001            500          l1_kh    1    0    1
pp_96_l1        log    factor   8.2669388E-02  0.00001            500          l1_kh    1    0    1
pp_98_l1        log    factor   3.1579092E-02  0.00001            500          l1_kh    1    0    1
pp_99_l1        log    factor   2.9579667E-02  0.00001            500          l1_kh    1    0    1
pp_101_l1       log    factor   4.9013396E-02  0.00001            500          l1_kh    1    0    1
pp_103_l1       log    factor   3.2000389E-02  0.00001            500          l1_kh    1    0    1
pp_105_l1       log    factor   1.6978192E-02  0.00001            500          l1_kh    1    0    1
pp_107_l1       log    factor   2.9033733E-02  0.00001            500          l1_kh    1    0    1
pp_108_l1       log    factor   6.7248372E-04  0.00001            500          l1_kh    1    0    1
pp_110_l1       log    factor   2.1731105E-02  0.00001            500          l1_kh    1    0    1
pp_114_l1       log    factor   2.6320944E-02  0.00001            500          l1_kh    1    0    1
pp_117_l1       log    factor   1.6557248E-02  0.00001            500          l1_kh    1    0    1
pp_119_l1       log    factor   1.8565001E-02  0.00001            500          l1_kh    1    0    1
pp_122_l1       log    factor   2.2345603E-02  0.00001            500          l1_kh    1    0    1
pp_125_l1       log    factor   8.3872645E-03  0.00001            500          l1_kh    1    0    1
pp_126_l1       log    factor   1.8321032E-02  0.00001            500          l1_kh    1    0    1
pp_127_l1       log    factor   1.9478177E-02  0.00001            500          l1_kh    1    0    1
pp_128_l1       log    factor   1.4519260E-02  0.00001            500          l1_kh    1    0    1
pp_129_l1       log    factor   8.7875399E-03  0.00001            500          l1_kh    1    0    1
pp_135_l1       log    factor   1.8232999E-02  0.00001            500          l1_kh    1    0    1
pp_142_l1       log    factor   1.5811722E-02  0.00001            500          l1_kh    1    0    1
pp_145_l1       log    factor   1.2407033E-02  0.00001            500          l1_kh    1    0    1
pp_148_l1       log    factor   1.4971508E-02  0.00001            500          l1_kh    1    0    1
pp_152_l1       log    factor   1.7061080E-02  0.00001            500          l1_kh    1    0    1
pp_153_l1       log    factor   2.1247875E-02  0.00001            500          l1_kh    1    0    1
pp_155_l1       log    factor   2.1445122E-02  0.00001            500          l1_kh    1    0    1
pp_159_l1       log    factor   1.8400045E-02  0.00001            500          l1_kh    1    0    1
pp_160_l1       log    factor   1.8870162E-02  0.00001            500          l1_kh    1    0    1
pp_164_l1       log    factor   2.0877176E-02  0.00001            500          l1_kh    1    0    1
pp_166_l1       log    factor   2.1267723E-02  0.00001            500          l1_kh    1    0    1
pp_167_l1       log    factor   2.2735031E-02  0.00001            500          l1_kh    1    0    1
pp_168_l1       log    factor   2.6182773E-02  0.00001            500          l1_kh    1    0    1
pp_170_l1       log    factor   2.5226192E-02  0.00001            500          l1_kh    1    0    1
pp_174_l1       log    factor   1.9350765E-02  0.00001            500          l1_kh    1    0    1
pp_179_l1       log    factor   2.1041367E-02  0.00001            500          l1_kh    1    0    1
pp_182_l1       log    factor   3.1636564E-02  0.00001            500          l1_kh    1    0    1
pp_187_l1       log    factor   2.5891974E-02  0.00001            500          l1_kh    1    0    1
pp_189_l1       log    factor   2.2651883E-02  0.00001            500          l1_kh    1    0    1
pp_190_l1       log    factor   1.8343300E-02  0.00001            500          l1_kh    1    0    1
pp_191_l1       log    factor   1.5452750E-02  0.00001            500          l1_kh    1    0    1
pp_193_l1       log    factor   2.1837733E-02  0.00001            500          l1_kh    1    0    1
pp_198_l1       log    factor   4.2706618E-02  0.00001            500          l1_kh    1    0    1
pp_200_l1       log    factor   4.8424767E-03  0.00001            500          l1_kh    1    0    1
pp_201_l1       log    factor   1.9308413E-02  0.00001            500          l1_kh    1    0    1
pp_202_l1       log    factor   1.6185013E-02  0.00001            500          l1_kh    1    0    1
pp_205_l1       log    factor   2.0677764E-02  0.00001            500          l1_kh    1    0    1
pp_206_l1       log    factor   2.1763036E-02  0.00001            500          l1_kh    1    0    1
pp_207_l1       log    factor   1.9921683E-02  0.00001            500          l1_kh    1    0    1
pp_208_l1       log    factor   1.9650597E-02  0.00001            500          l1_kh    1    0    1
pp_209_l1       log    factor   1.4774662E-02  0.00001            500          l1_kh    1    0    1
pp_210_l1       log    factor   2.0897146E-02  0.00001            500          l1_kh    1    0    1
pp_212_l1       log    factor   2.5139918E-02  0.00001            500          l1_kh    1    0    1
pp_214_l1       log    factor   2.0230559E-02  0.00001            500          l1_kh    1    0    1
pp_215_l1       log    factor   2.1048487E-02  0.00001            500          l1_kh    1    0    1
pp_216_l1       log    factor   3.3223135E-02  0.00001            500          l1_kh    1    0    1
pp_217_l1       log    factor   1.9701738E-02  0.00001            500          l1_kh    1    0    1
pp_218_l1       log    factor   2.0169936E-02  0.00001            500          l1_kh    1    0    1
pp_219_l1       log    factor   2.2307284E-02  0.00001            500          l1_kh    1    0    1
pp_222_l1       log    factor   1.6564766E-02  0.00001            500          l1_kh    1    0    1
pp_224_l1       log    factor   2.4272301E-02  0.00001            500          l1_kh    1    0    1
pp_225_l1       log    factor   2.0836748E-02  0.00001            500          l1_kh    1    0    1
pp_226_l1       log    factor   1.9313256E-02  0.00001            500          l1_kh    1    0    1
pp_227_l1       log    factor   2.4026401E-02  0.00001            500          l1_kh    1    0    1
pp_229_l1       log    factor   1.3699028E-02  0.00001            500          l1_kh    1    0    1
pp_233_l1       log    factor   2.2637450E-02  0.00001            500          l1_kh    1    0    1
pp_235_l1       log    factor   2.5867670E-02  0.00001            500          l1_kh    1    0    1
pp_236_l1       log    factor   6.3805515E-02  0.00001            500          l1_kh    1    0    1
pp_237_l1       log    factor   0.1790142      0.00001            500          l1_kh    1    0    1
pp_241_l1       log    factor   3.8686800E-02  0.00001            500          l1_kh    1    0    1
pp_242_l1       log    factor   6.7376039E-03  0.00001            500          l1_kh    1    0    1
pp_243_l1       log    factor   3.0049883E-02  0.00001            500          l1_kh    1    0    1
pp_245_l1       log    factor   1.5459162E-02  0.00001            500          l1_kh    1    0    1
pp_246_l1       log    factor   9.6526328E-03  0.00001            500          l1_kh    1    0    1
pp_247_l1       log    factor   2.7225747E-03  0.00001            500          l1_kh    1    0    1
pp_251_l1       log    factor   2.7366752E-02  0.00001            500          l1_kh    1    0    1
pp_252_l1       log    factor   1.6757047E-02  0.00001            500          l1_kh    1    0    1
pp_253_l1       log    factor   4.3091908E-02  0.00001            500          l1_kh    1    0    1
pp_254_l1       log    factor   5.2764437E-02  0.00001            500          l1_kh    1    0    1
pp_255_l1       log    factor   2.1777549E-02  0.00001            500          l1_kh    1    0    1
pp_257_l1       log    factor   3.8679139E-02  0.00001            500          l1_kh    1    0    1
pp_258_l1       log    factor   4.3072262E-02  0.00001            500          l1_kh    1    0    1
pp_259_l1       log    factor   0.1043735      0.00001            500          l1_kh    1    0    1
pp_260_l1       log    factor   4.2876205E-02  0.00001            500          l1_kh    1    0    1
pp_264_l1       log    factor   6.3621324E-03  0.00001            500          l1_kh    1    0    1
pp_269_l1       log    factor   2.2787953E-02  0.00001            500          l1_kh    1    0    1
pp_272_l1       log    factor   7.9673533E-03  0.00001            500          l1_kh    1    0    1
pp_273_l1       log    factor   0.1086621      0.00001            500          l1_kh    1    0    1
pp_277_l1       log    factor   2.7950790E-02  0.00001            500          l1_kh    1    0    1
pp_278_l1       log    factor   2.2173397E-02  0.00001            500          l1_kh    1    0    1
pp_282_l1       log    factor   1.2823051E-02  0.00001            500          l1_kh    1    0    1
pp_286_l1       log    factor   1.3884773E-02  0.00001            500          l1_kh    1    0    1
pp_290_l1       log    factor   1.8506570E-02  0.00001            500          l1_kh    1    0    1
pp_291_l1       log    factor   8.6647070E-03  0.00001            500          l1_kh    1    0    1
pp_294_l1       log    factor   9.8511873E-03  0.00001            500          l1_kh    1    0    1
pp_295_l1       log    factor   8.7089873E-02  0.00001            500          l1_kh    1    0    1
pp_296_l1       log    factor   2.5121754E-02  0.00001            500          l1_kh    1    0    1
pp_302_l1       log    factor   0.1221886      0.00001            500          l1_kh    1    0    1
pp_303_l1       log    factor   1.6986371E-02  0.00001            500          l1_kh    1    0    1
pp_306_l1       log    factor   4.2314002E-02  0.00001            500          l1_kh    1    0    1
pp_307_l1       log    factor   4.1192095E-02  0.00001            500          l1_kh    1    0    1
pp_309_l1       log    factor   4.7025143E-03  0.00001            500          l1_kh    1    0    1
pp_313_l1       log    factor   1.6228362E-02  0.00001            500          l1_kh    1    0    1
pp_318_l1       log    factor   6.0410477E-02  0.00001            500          l1_kh    1    0    1
pp_321_l1       log    factor   3.1495657E-02  0.00001            500          l1_kh    1    0    1
pp_323_l1       log    factor   8.7856515E-03  0.00001            500          l1_kh    1    0    1
pp_324_l1       log    factor   2.8533193E-02  0.00001            500          l1_kh    1    0    1
pp_325_l1       log    factor   6.3957553E-03  0.00001            500          l1_kh    1    0    1
pp_330_l1       log    factor   3.1731884E-02  0.00001            500          l1_kh    1    0    1
pp_340_l1       log    factor   2.7912118E-02  0.00001            500          l1_kh    1    0    1
pp_342_l1       log    factor   1.8597507E-02  0.00001            500          l1_kh    1    0    1
pp_344_l1       log    factor   2.0550591E-02  0.00001            500          l1_kh    1    0    1
pp_345_l1       log    factor   1.8939974E-02  0.00001            500          l1_kh    1    0    1
pp_347_l1       log    factor   2.9249068E-02  0.00001            500          l1_kh    1    0    1
pp_348_l1       log    factor   2.9892190E-03  0.00001            500          l1_kh    1    0    1
pp_352_l1       log    factor   0.3052529      0.00001            500          l1_kh    1    0    1
pp_355_l1       log    factor   2.0823198E-03  0.00001            500          l1_kh    1    0    1
pp_358_l1       log    factor   4.7909995E-02  0.00001            500          l1_kh    1    0    1
pp_366_l1       log    factor   0.1109180      0.00001            500          l1_kh    1    0    1
pp_370_l1       log    factor   1.2928786E-03  0.00001            500          l1_kh    1    0    1
pp_372_l1       log    factor   2.8786357E-02  0.00001            500          l1_kh    1    0    1
pp_374_l1       log    factor   3.6900087E-02  0.00001            500          l1_kh    1    0    1
pp_376_l1       log    factor   2.2748795E-02  0.00001            500          l1_kh    1    0    1
pp_377_l1       log    factor   6.2908079E-02  0.00001            500          l1_kh    1    0    1
pp_378_l1       log    factor   2.6615546E-02  0.00001            500          l1_kh    1    0    1
pp_379_l1       log    factor   3.4388860E-03  0.00001            500          l1_kh    1    0    1
pp_380_l1       log    factor   1.0981192E-03  0.00001            500          l1_kh    1    0    1
pp_381_l1       log    factor   3.1745597E-02  0.00001            500          l1_kh    1    0    1
pp_382_l1       log    factor   2.1478178E-02  0.00001            500          l1_kh    1    0    1
pp_383_l1       log    factor   2.3011065E-02  0.00001            500          l1_kh    1    0    1
pp_384_l1       log    factor   4.7093340E-02  0.00001            500          l1_kh    1    0    1
pp_387_l1       log    factor   2.9471770E-02  0.00001            500          l1_kh    1    0    1
pp_388_l1       log    factor   4.3904090E-02  0.00001            500          l1_kh    1    0    1
pp_389_l1       log    factor   3.4196873E-02  0.00001            500          l1_kh    1    0    1
pp_390_l1       log    factor   2.2705358E-02  0.00001            500          l1_kh    1    0    1
pp_392_l1       log    factor   1.5512146E-02  0.00001            500          l1_kh    1    0    1
pp_394_l1       log    factor   6.3371996E-04  0.00001            500          l1_kh    1    0    1
pp_396_l1       log    factor   3.3204646E-02  0.00001            500          l1_kh    1    0    1
pp_397_l1       log    factor   2.0229603E-02  0.00001            500          l1_kh    1    0    1
pp_398_l1       log    factor   5.7059357E-02  0.00001            500          l1_kh    1    0    1
pp_399_l1       log    factor   0.1296624      0.00001            500          l1_kh    1    0    1
pp_401_l1       log    factor   3.2467657E-02  0.00001            500          l1_kh    1    0    1
pp_402_l1       log    factor   1.7407769E-02  0.00001            500          l1_kh    1    0    1
pp_403_l1       log    factor   0.1173574      0.00001            500          l1_kh    1    0    1
pp_404_l1       log    factor    1.999885      0.00001            500          l1_kh    1    0    1
pp_406_l1       log    factor   2.7514547E-02  0.00001            500          l1_kh    1    0    1
pp_407_l1       log    factor   0.1879752      0.00001            500          l1_kh    1    0    1
pp_409_l1       log    factor   2.3352890E-02  0.00001            500          l1_kh    1    0    1
pp_410_l1       log    factor   3.0636940E-02  0.00001            500          l1_kh    1    0    1
pp_411_l1       log    factor   8.8579698E-03  0.00001            500          l1_kh    1    0    1
pp_412_l1       log    factor   3.0542193E-02  0.00001            500          l1_kh    1    0    1
pp_417_l1       log    factor   2.0352316E-02  0.00001            500          l1_kh    1    0    1
pp_419_l1       log    factor   1.1197406E-02  0.00001            500          l1_kh    1    0    1
pp_420_l1       log    factor   4.5495832E-02  0.00001            500          l1_kh    1    0    1
pp_421_l1       log    factor   3.7050209E-02  0.00001            500          l1_kh    1    0    1
pp_422_l1       log    factor   2.5978323E-02  0.00001            500          l1_kh    1    0    1
pp_423_l1       log    factor   1.8204397E-02  0.00001            500          l1_kh    1    0    1
pp_424_l1       log    factor   1.8015566E-02  0.00001            500          l1_kh    1    0    1
pp_425_l1       log    factor   3.1727668E-02  0.00001            500          l1_kh    1    0    1
pp_426_l1       log    factor   0.1918116      0.00001            500          l1_kh    1    0    1
pp_428_l1       log    factor   2.9086164E-02  0.00001            500          l1_kh    1    0    1
pp_429_l1       log    factor   5.5385527E-02  0.00001            500          l1_kh    1    0    1
pp_430_l1       log    factor   3.5092343E-02  0.00001            500          l1_kh    1    0    1
pp_432_l1       log    factor   5.5158369E-02  0.00001            500          l1_kh    1    0    1
pp_433_l1       log    factor   5.6904124E-02  0.00001            500          l1_kh    1    0    1
pp_434_l1       log    factor    2.000003      0.00001            500          l1_kh    1    0    1
pp_435_l1       log    factor   9.7041833E-02  0.00001            500          l1_kh    1    0    1
pp_436_l1       log    factor   1.5132836E-02  0.00001            500          l1_kh    1    0    1
pp_438_l1       log    factor   1.3313243E-02  0.00001            500          l1_kh    1    0    1
pp_442_l1       log    factor   3.7510790E-02  0.00001            500          l1_kh    1    0    1
pp_444_l1       log    factor   2.5311725E-02  0.00001            500          l1_kh    1    0    1
pp_445_l1       log    factor   1.8929674E-02  0.00001            500          l1_kh    1    0    1
pp_446_l1       log    factor   2.5223239E-02  0.00001            500          l1_kh    1    0    1
pp_447_l1       log    factor   2.8300186E-02  0.00001            500          l1_kh    1    0    1
pp_448_l1       log    factor   1.7000098E-02  0.00001            500          l1_kh    1    0    1
pp_450_l1       log    factor   5.3956879E-02  0.00001            500          l1_kh    1    0    1
pp_455_l1       log    factor   1.5259854E-02  0.00001            500          l1_kh    1    0    1
pp_456_l1       log    factor    1.999991      0.00001            500          l1_kh    1    0    1
pp_458_l1       log    factor   9.3609229E-02  0.00001            500          l1_kh    1    0    1
pp_459_l1       log    factor   5.9702313E-02  0.00001            500          l1_kh    1    0    1
pp_460_l1       log    factor   1.0660561E-02  0.00001            500          l1_kh    1    0    1
pp_461_l1       log    factor   3.1355375E-02  0.00001            500          l1_kh    1    0    1
pp_462_l1       log    factor   2.4530678E-02  0.00001            500          l1_kh    1    0    1
pp_463_l1       log    factor    1.999978      0.00001            500          l1_kh    1    0    1
pp_464_l1       log    factor   7.7931252E-03  0.00001            500          l1_kh    1    0    1
pp_466_l1       log    factor   1.7389033E-02  0.00001            500          l1_kh    1    0    1
pp_468_l1       log    factor   3.7931146E-02  0.00001            500          l1_kh    1    0    1
pp_471_l1       log    factor   6.3129429E-02  0.00001            500          l1_kh    1    0    1
pp_472_l1       log    factor   0.4392106      0.00001            500          l1_kh    1    0    1
pp_475_l1       log    factor   2.0306285E-02  0.00001            500          l1_kh    1    0    1
pp_483_l1       log    factor   3.9168133E-02  0.00001            500          l1_kh    1    0    1
pp_484_l1       log    factor   5.6068607E-02  0.00001            500          l1_kh    1    0    1
pp_485_l1       log    factor    2.000021      0.00001            500          l1_kh    1    0    1
pp_486_l1       log    factor    2.000001      0.00001            500          l1_kh    1    0    1
pp_488_l1       log    factor   7.6177286E-02  0.00001            500          l1_kh    1    0    1
pp_490_l1       log    factor   3.1316884E-02  0.00001            500          l1_kh    1    0    1
pp_493_l1       log    factor   2.3882780E-02  0.00001            500          l1_kh    1    0    1
pp_495_l1       log    factor   9.5576484E-02  0.00001            500          l1_kh    1    0    1
pp_496_l1       log    factor   5.9554748E-02  0.00001            500          l1_kh    1    0    1
pp_497_l1       log    factor   0.1727788      0.00001            500          l1_kh    1    0    1
pp_498_l1       log    factor   1.9776968E-02  0.00001            500          l1_kh    1    0    1
pp_500_l1       log    factor   1.4840246E-02  0.00001            500          l1_kh    1    0    1
pp_502_l1       log    factor   1.3046745E-02  0.00001            500          l1_kh    1    0    1
pp_504_l1       log    factor   2.5606311E-02  0.00001            500          l1_kh    1    0    1
pp_506_l1       log    factor   1.6023805E-02  0.00001            500          l1_kh    1    0    1
pp_510_l1       log    factor   1.9573991E-02  0.00001            500          l1_kh    1    0    1
pp_511_l1       log    factor   2.1469207E-02  0.00001            500          l1_kh    1    0    1
pp_512_l1       log    factor   3.4190629E-02  0.00001            500          l1_kh    1    0    1
pp_513_l1       log    factor   1.8684091E-02  0.00001            500          l1_kh    1    0    1
pp_515_l1       log    factor   2.1330070E-02  0.00001            500          l1_kh    1    0    1
pp_517_l1       log    factor   3.1387248E-02  0.00001            500          l1_kh    1    0    1
pp_518_l1       log    factor   2.6354331E-02  0.00001            500          l1_kh    1    0    1
pp_519_l1       log    factor   1.9058446E-02  0.00001            500          l1_kh    1    0    1
pp_521_l1       log    factor   1.6136700E-02  0.00001            500          l1_kh    1    0    1
pp_522_l1       log    factor   1.9251978E-02  0.00001            500          l1_kh    1    0    1
pp_523_l1       log    factor   1.8839842E-02  0.00001            500          l1_kh    1    0    1
pp_524_l1       log    factor   2.1054754E-02  0.00001            500          l1_kh    1    0    1
pp_526_l1       log    factor   1.3705144E-02  0.00001            500          l1_kh    1    0    1
pp_529_l1       log    factor   2.2025355E-02  0.00001            500          l1_kh    1    0    1
pp_530_l1       log    factor   2.8831292E-02  0.00001            500          l1_kh    1    0    1
pp_531_l1       log    factor   2.8989388E-02  0.00001            500          l1_kh    1    0    1
pp_538_l1       log    factor   1.8043403E-02  0.00001            500          l1_kh    1    0    1
pp_543_l1       log    factor   1.2676563E-02  0.00001            500          l1_kh    1    0    1
pp_550_l1       log    factor   2.1871679E-02  0.00001            500          l1_kh    1    0    1
pp_551_l1       log    factor   2.7906168E-02  0.00001            500          l1_kh    1    0    1
pp_552_l1       log    factor   1.9163942E-02  0.00001            500          l1_kh    1    0    1
pp_554_l1       log    factor   2.5870692E-02  0.00001            500          l1_kh    1    0    1
pp_555_l1       log    factor   1.7402517E-02  0.00001            500          l1_kh    1    0    1
pp_556_l1       log    factor   2.3035885E-02  0.00001            500          l1_kh    1    0    1
pp_557_l1       log    factor   2.7479542E-02  0.00001            500          l1_kh    1    0    1
pp_558_l1       log    factor   4.2575651E-02  0.00001            500          l1_kh    1    0    1
pp_565_l1       log    factor   5.3765016E-02  0.00001            500          l1_kh    1    0    1
pp_566_l1       log    factor   0.3423827      0.00001            500          l1_kh    1    0    1
pp_568_l1       log    factor   2.2822969E-02  0.00001            500          l1_kh    1    0    1
pp_572_l1       log    factor   2.1808644E-02  0.00001            500          l1_kh    1    0    1
pp_576_l1       log    factor   2.3359488E-02  0.00001            500          l1_kh    1    0    1