pcf
* control data
restart estimation
   3533    367     17      0       5
      6     21 single  point   1   0   0
  5.0  -3.0   0.3  0.03    10
 15.0  15.0 0.001  0
  0.1
   50  0.01     3     3  0.01     3
    1     1     1
* singular value decomposition
         1
      1300     1E-07
         0
* parameter groups
FINF           relative   0.020  0.0   switch  2.0   outside_pts
pET            relative   0.020  0.0   switch  2.0   outside_pts
StrmBed        relative   0.020  0.0   switch  2.0   outside_pts
L1_Kh          relative   0.020  0.0   switch  2.0   outside_pts
L2_Kh_Zn2      relative   0.020  0.0   switch  2.0   outside_pts
L2_Kh_Zn3      relative   0.020  0.0   switch  2.0   outside_pts
L2_Kh_Zn4      relative   0.020  0.0   switch  2.0   outside_pts
L2_Kh_Zn5      relative   0.020  0.0   switch  2.0   outside_pts
L2_Kh_Zn6      relative   0.020  0.0   switch  2.0   outside_pts
L2_Kh_Zn7      relative   0.020  0.0   switch  2.0   outside_pts
L2_Kh_Zn8      relative   0.020  0.0   switch  2.0   outside_pts
L2_Kh_Zn9      relative   0.020  0.0   switch  2.0   outside_pts
L3_Kh_Zn10     relative   0.020  0.0   switch  2.0   outside_pts
SurfK_Alluv    relative   0.020  0.0   switch  2.0   outside_pts
SurfK_Mtn      relative   0.020  0.0   switch  2.0   outside_pts
vks_alluv      relative   0.020  0.0   switch  2.0   outside_pts
vks_mtn        relative   0.020  0.0   switch  2.0   outside_pts
* parameter data
finf          log   factor   0.3978768      0.10000    1.000     finf       1.0000    0.0000   1
extdp         log   factor   0.5475920      0.10000    1.000     finf       1.0000    0.0000   1
pET           log   factor   0.6995161      0.66000    1.200      pET       1.0000    0.0000   1
pp_3_l1       log   factor    19.19511      0.00001    500.0    l1_kh       1.0000    0.0000   1
pp_4_l1       log   factor    6.693969      0.00001    500.0    l1_kh       1.0000    0.0000   1
pp_9_l1       log   factor    1.640777      0.00001    500.0    l1_kh       1.0000    0.0000   1
pp_10_l1      log   factor    500.0000      0.00001    500.0    l1_kh       1.0000    0.0000   1
pp_12_l1      log   factor    5.334992      0.00001    500.0    l1_kh       1.0000    0.0000   1
pp_16_l1      log   factor    15.69791      0.00001    500.0    l1_kh       1.0000    0.0000   1
pp_17_l1      log   factor    2.025257      0.00001    500.0    l1_kh       1.0000    0.0000   1
pp_18_l1      log   factor    6.812253      0.00001    500.0    l1_kh       1.0000    0.0000   1
pp_23_l1      log   factor    500.0000      0.00001    500.0    l1_kh       1.0000    0.0000   1
pp_24_l1      log   factor    469.4507      0.00001    500.0    l1_kh       1.0000    0.0000   1
pp_26_l1      log   factor    9.316254      0.00001    500.0    l1_kh       1.0000    0.0000   1
pp_27_l1      log   factor    13.18355      0.00001    500.0    l1_kh       1.0000    0.0000   1
pp_29_l1      log   factor    499.8217      0.00001    500.0    l1_kh       1.0000    0.0000   1
pp_30_l1      log   factor    7.309454      0.00001    500.0    l1_kh       1.0000    0.0000   1
pp_34_l1      log   factor    4.772325      0.00001    500.0    l1_kh       1.0000    0.0000   1
pp_35_l1      log   factor    4.399099      0.00001    500.0    l1_kh       1.0000    0.0000   1
pp_36_l1      log   factor    499.4944      0.00001    500.0    l1_kh       1.0000    0.0000   1
pp_39_l1      log   factor    32.81708      0.00001    500.0    l1_kh       1.0000    0.0000   1
pp_41_l1      log   factor    136.6748      0.00001    500.0    l1_kh       1.0000    0.0000   1
pp_42_l1      log   factor    500.0000      0.00001    500.0    l1_kh       1.0000    0.0000   1
pp_45_l1      log   factor    1.591388      0.00001    500.0    l1_kh       1.0000    0.0000   1
pp_47_l1      log   factor    11.66567      0.00001    500.0    l1_kh       1.0000    0.0000   1
pp_50_l1      log   factor    21.75476      0.00001    500.0    l1_kh       1.0000    0.0000   1
pp_51_l1      log   factor    3.528767      0.00001    500.0    l1_kh       1.0000    0.0000   1
pp_54_l1      log   factor    28.90182      0.00001    500.0    l1_kh       1.0000    0.0000   1
pp_56_l1      log   factor    3.485084      0.00001    500.0    l1_kh       1.0000    0.0000   1
pp_58_l1      log   factor    13.08315      0.00001    500.0    l1_kh       1.0000    0.0000   1
pp_61_l1      log   factor    7.814070      0.00001    500.0    l1_kh       1.0000    0.0000   1
pp_63_l1      log   factor    10.29597      0.00001    500.0    l1_kh       1.0000    0.0000   1
pp_68_l1      log   factor    3.355571      0.00001    500.0    l1_kh       1.0000    0.0000   1
pp_71_l1      log   factor    15.25913      0.00001    500.0    l1_kh       1.0000    0.0000   1
pp_77_l1      log   factor    3.252803      0.00001    500.0    l1_kh       1.0000    0.0000   1
pp_78_l1      log   factor    6.285083      0.00001    500.0    l1_kh       1.0000    0.0000   1
pp_82_l1      log   factor    28.60432      0.00001    500.0    l1_kh       1.0000    0.0000   1
pp_88_l1      log   factor    5.443385      0.00001    500.0    l1_kh       1.0000    0.0000   1
pp_90_l1      log   factor    6.317480      0.00001    500.0    l1_kh       1.0000    0.0000   1
pp_91_l1      log   factor    9.162092      0.00001    500.0    l1_kh       1.0000    0.0000   1
pp_93_l1      log   factor    8.046145      0.00001    500.0    l1_kh       1.0000    0.0000   1
pp_94_l1      log   factor    5.224844      0.00001    500.0    l1_kh       1.0000    0.0000   1
pp_95_l1      log   factor    5.219233      0.00001    500.0    l1_kh       1.0000    0.0000   1
pp_96_l1      log   factor    20.66763      0.00001    500.0    l1_kh       1.0000    0.0000   1
pp_98_l1      log   factor    7.894495      0.00001    500.0    l1_kh       1.0000    0.0000   1
pp_99_l1      log   factor    7.394975      0.00001    500.0    l1_kh       1.0000    0.0000   1
pp_101_l1     log   factor    12.25316      0.00001    500.0    l1_kh       1.0000    0.0000   1
pp_103_l1     log   factor    8.000015      0.00001    500.0    l1_kh       1.0000    0.0000   1
pp_105_l1     log   factor    4.244592      0.00001    500.0    l1_kh       1.0000    0.0000   1
pp_107_l1     log   factor    7.258213      0.00001    500.0    l1_kh       1.0000    0.0000   1
pp_108_l1     log   factor   0.1681221      0.00001    500.0    l1_kh       1.0000    0.0000   1
pp_110_l1     log   factor    5.432786      0.00001    500.0    l1_kh       1.0000    0.0000   1
pp_114_l1     log   factor    6.580136      0.00001    500.0    l1_kh       1.0000    0.0000   1
pp_117_l1     log   factor    4.139306      0.00001    500.0    l1_kh       1.0000    0.0000   1
pp_119_l1     log   factor    4.641169      0.00001    500.0    l1_kh       1.0000    0.0000   1
pp_122_l1     log   factor    5.586408      0.00001    500.0    l1_kh       1.0000    0.0000   1
pp_125_l1     log   factor    2.096804      0.00001    500.0    l1_kh       1.0000    0.0000   1
pp_126_l1     log   factor    4.580245      0.00001    500.0    l1_kh       1.0000    0.0000   1
pp_127_l1     log   factor    4.870223      0.00001    500.0    l1_kh       1.0000    0.0000   1
pp_128_l1     log   factor    3.629814      0.00001    500.0    l1_kh       1.0000    0.0000   1
pp_129_l1     log   factor    2.196883      0.00001    500.0    l1_kh       1.0000    0.0000   1
pp_135_l1     log   factor    4.558252      0.00001    500.0    l1_kh       1.0000    0.0000   1
pp_142_l1     log   factor    3.952940      0.00001    500.0    l1_kh       1.0000    0.0000   1
pp_145_l1     log   factor    3.101299      0.00001    500.0    l1_kh       1.0000    0.0000   1
pp_148_l1     log   factor    3.742715      0.00001    500.0    l1_kh       1.0000    0.0000   1
pp_152_l1     log   factor    4.265248      0.00001    500.0    l1_kh       1.0000    0.0000   1
pp_153_l1     log   factor    5.311894      0.00001    500.0    l1_kh       1.0000    0.0000   1
pp_155_l1     log   factor    5.361275      0.00001    500.0    l1_kh       1.0000    0.0000   1
pp_159_l1     log   factor    4.597920      0.00001    500.0    l1_kh       1.0000    0.0000   1
pp_160_l1     log   factor    4.717542      0.00001    500.0    l1_kh       1.0000    0.0000   1
pp_164_l1     log   factor    5.219131      0.00001    500.0    l1_kh       1.0000    0.0000   1
pp_166_l1     log   factor    5.317024      0.00001    500.0    l1_kh       1.0000    0.0000   1
pp_167_l1     log   factor    5.683749      0.00001    500.0    l1_kh       1.0000    0.0000   1
pp_168_l1     log   factor    6.545695      0.00001    500.0    l1_kh       1.0000    0.0000   1
pp_170_l1     log   factor    6.306140      0.00001    500.0    l1_kh       1.0000    0.0000   1
pp_174_l1     log   factor    4.838440      0.00001    500.0    l1_kh       1.0000    0.0000   1
pp_179_l1     log   factor    5.260189      0.00001    500.0    l1_kh       1.0000    0.0000   1
pp_182_l1     log   factor    7.909474      0.00001    500.0    l1_kh       1.0000    0.0000   1
pp_187_l1     log   factor    6.473712      0.00001    500.0    l1_kh       1.0000    0.0000   1
pp_189_l1     log   factor    5.665760      0.00001    500.0    l1_kh       1.0000    0.0000   1
pp_190_l1     log   factor    4.585826      0.00001    500.0    l1_kh       1.0000    0.0000   1
pp_191_l1     log   factor    3.864035      0.00001    500.0    l1_kh       1.0000    0.0000   1
pp_193_l1     log   factor    5.459358      0.00001    500.0    l1_kh       1.0000    0.0000   1
pp_198_l1     log   factor    10.67665      0.00001    500.0    l1_kh       1.0000    0.0000   1
pp_200_l1     log   factor    1.210620      0.00001    500.0    l1_kh       1.0000    0.0000   1
pp_201_l1     log   factor    4.827022      0.00001    500.0    l1_kh       1.0000    0.0000   1
pp_202_l1     log   factor    4.046264      0.00001    500.0    l1_kh       1.0000    0.0000   1
pp_205_l1     log   factor    5.169412      0.00001    500.0    l1_kh       1.0000    0.0000   1
pp_206_l1     log   factor    5.438123      0.00001    500.0    l1_kh       1.0000    0.0000   1
pp_207_l1     log   factor    4.980399      0.00001    500.0    l1_kh       1.0000    0.0000   1
pp_208_l1     log   factor    4.913419      0.00001    500.0    l1_kh       1.0000    0.0000   1
pp_209_l1     log   factor    3.693694      0.00001    500.0    l1_kh       1.0000    0.0000   1
pp_210_l1     log   factor    5.224205      0.00001    500.0    l1_kh       1.0000    0.0000   1
pp_212_l1     log   factor    6.285069      0.00001    500.0    l1_kh       1.0000    0.0000   1
pp_214_l1     log   factor    5.057641      0.00001    500.0    l1_kh       1.0000    0.0000   1
pp_215_l1     log   factor    5.263175      0.00001    500.0    l1_kh       1.0000    0.0000   1
pp_216_l1     log   factor    8.306116      0.00001    500.0    l1_kh       1.0000    0.0000   1
pp_217_l1     log   factor    4.925743      0.00001    500.0    l1_kh       1.0000    0.0000   1
pp_218_l1     log   factor    5.042936      0.00001    500.0    l1_kh       1.0000    0.0000   1
pp_219_l1     log   factor    5.575672      0.00001    500.0    l1_kh       1.0000    0.0000   1
pp_222_l1     log   factor    4.141180      0.00001    500.0    l1_kh       1.0000    0.0000   1
pp_224_l1     log   factor    6.052835      0.00001    500.0    l1_kh       1.0000    0.0000   1
pp_225_l1     log   factor    5.208632      0.00001    500.0    l1_kh       1.0000    0.0000   1
pp_226_l1     log   factor    4.828323      0.00001    500.0    l1_kh       1.0000    0.0000   1
pp_227_l1     log   factor    6.006456      0.00001    500.0    l1_kh       1.0000    0.0000   1
pp_229_l1     log   factor    3.424759      0.00001    500.0    l1_kh       1.0000    0.0000   1
pp_233_l1     log   factor    5.659366      0.00001    500.0    l1_kh       1.0000    0.0000   1
pp_235_l1     log   factor    6.466919      0.00001    500.0    l1_kh       1.0000    0.0000   1
pp_236_l1     log   factor    15.95137      0.00001    500.0    l1_kh       1.0000    0.0000   1
pp_237_l1     log   factor    44.75356      0.00001    500.0    l1_kh       1.0000    0.0000   1
pp_241_l1     log   factor    9.671683      0.00001    500.0    l1_kh       1.0000    0.0000   1
pp_242_l1     log   factor    1.684414      0.00001    500.0    l1_kh       1.0000    0.0000   1
pp_243_l1     log   factor    7.512469      0.00001    500.0    l1_kh       1.0000    0.0000   1
pp_245_l1     log   factor    3.864787      0.00001    500.0    l1_kh       1.0000    0.0000   1
pp_246_l1     log   factor    2.413153      0.00001    500.0    l1_kh       1.0000    0.0000   1
pp_247_l1     log   factor   0.6806613      0.00001    500.0    l1_kh       1.0000    0.0000   1
pp_251_l1     log   factor    6.841709      0.00001    500.0    l1_kh       1.0000    0.0000   1
pp_252_l1     log   factor    4.189388      0.00001    500.0    l1_kh       1.0000    0.0000   1
pp_253_l1     log   factor    10.77297      0.00001    500.0    l1_kh       1.0000    0.0000   1
pp_254_l1     log   factor    13.19118      0.00001    500.0    l1_kh       1.0000    0.0000   1
pp_255_l1     log   factor    5.444437      0.00001    500.0    l1_kh       1.0000    0.0000   1
pp_257_l1     log   factor    9.670001      0.00001    500.0    l1_kh       1.0000    0.0000   1
pp_258_l1     log   factor    10.76806      0.00001    500.0    l1_kh       1.0000    0.0000   1
pp_259_l1     log   factor    26.09636      0.00001    500.0    l1_kh       1.0000    0.0000   1
pp_260_l1     log   factor    10.71967      0.00001    500.0    l1_kh       1.0000    0.0000   1
pp_264_l1     log   factor    1.590532      0.00001    500.0    l1_kh       1.0000    0.0000   1
pp_269_l1     log   factor    5.696988      0.00001    500.0    l1_kh       1.0000    0.0000   1
pp_272_l1     log   factor    1.991855      0.00001    500.0    l1_kh       1.0000    0.0000   1
pp_273_l1     log   factor    27.16552      0.00001    500.0    l1_kh       1.0000    0.0000   1
pp_277_l1     log   factor    6.987635      0.00001    500.0    l1_kh       1.0000    0.0000   1
pp_278_l1     log   factor    5.543369      0.00001    500.0    l1_kh       1.0000    0.0000   1
pp_282_l1     log   factor    3.205734      0.00001    500.0    l1_kh       1.0000    0.0000   1
pp_286_l1     log   factor    3.471203      0.00001    500.0    l1_kh       1.0000    0.0000   1
pp_290_l1     log   factor    4.626878      0.00001    500.0    l1_kh       1.0000    0.0000   1
pp_291_l1     log   factor    2.166163      0.00001    500.0    l1_kh       1.0000    0.0000   1
pp_294_l1     log   factor    2.462792      0.00001    500.0    l1_kh       1.0000    0.0000   1
pp_295_l1     log   factor    21.77092      0.00001    500.0    l1_kh       1.0000    0.0000   1
pp_296_l1     log   factor    6.280779      0.00001    500.0    l1_kh       1.0000    0.0000   1
pp_302_l1     log   factor    30.54785      0.00001    500.0    l1_kh       1.0000    0.0000   1
pp_303_l1     log   factor    4.246589      0.00001    500.0    l1_kh       1.0000    0.0000   1
pp_306_l1     log   factor    10.57866      0.00001    500.0    l1_kh       1.0000    0.0000   1
pp_307_l1     log   factor    10.29821      0.00001    500.0    l1_kh       1.0000    0.0000   1
pp_309_l1     log   factor    1.175621      0.00001    500.0    l1_kh       1.0000    0.0000   1
pp_313_l1     log   factor    4.058276      0.00001    500.0    l1_kh       1.0000    0.0000   1
pp_318_l1     log   factor    15.10252      0.00001    500.0    l1_kh       1.0000    0.0000   1
pp_321_l1     log   factor    7.873893      0.00001    500.0    l1_kh       1.0000    0.0000   1
pp_323_l1     log   factor    2.196415      0.00001    500.0    l1_kh       1.0000    0.0000   1
pp_324_l1     log   factor    7.133193      0.00001    500.0    l1_kh       1.0000    0.0000   1
pp_325_l1     log   factor    1.598918      0.00001    500.0    l1_kh       1.0000    0.0000   1
pp_330_l1     log   factor    7.932960      0.00001    500.0    l1_kh       1.0000    0.0000   1
pp_340_l1     log   factor    6.978008      0.00001    500.0    l1_kh       1.0000    0.0000   1
pp_342_l1     log   factor    4.649399      0.00001    500.0    l1_kh       1.0000    0.0000   1
pp_344_l1     log   factor    5.137643      0.00001    500.0    l1_kh       1.0000    0.0000   1
pp_345_l1     log   factor    4.735002      0.00001    500.0    l1_kh       1.0000    0.0000   1
pp_347_l1     log   factor    7.312264      0.00001    500.0    l1_kh       1.0000    0.0000   1
pp_348_l1     log   factor   0.7473033      0.00001    500.0    l1_kh       1.0000    0.0000   1
pp_352_l1     log   factor    76.31327      0.00001    500.0    l1_kh       1.0000    0.0000   1
pp_355_l1     log   factor   0.5205612      0.00001    500.0    l1_kh       1.0000    0.0000   1
pp_358_l1     log   factor    11.97764      0.00001    500.0    l1_kh       1.0000    0.0000   1
pp_366_l1     log   factor    27.72954      0.00001    500.0    l1_kh       1.0000    0.0000   1
pp_370_l1     log   factor   0.3232191      0.00001    500.0    l1_kh       1.0000    0.0000   1
pp_372_l1     log   factor    7.196627      0.00001    500.0    l1_kh       1.0000    0.0000   1
pp_374_l1     log   factor    9.224980      0.00001    500.0    l1_kh       1.0000    0.0000   1
pp_376_l1     log   factor    5.687186      0.00001    500.0    l1_kh       1.0000    0.0000   1
pp_377_l1     log   factor    15.72702      0.00001    500.0    l1_kh       1.0000    0.0000   1
pp_378_l1     log   factor    6.653784      0.00001    500.0    l1_kh       1.0000    0.0000   1
pp_379_l1     log   factor   0.8597189      0.00001    500.0    l1_kh       1.0000    0.0000   1
pp_380_l1     log   factor   0.2745311      0.00001    500.0    l1_kh       1.0000    0.0000   1
pp_381_l1     log   factor    7.936610      0.00001    500.0    l1_kh       1.0000    0.0000   1
pp_382_l1     log   factor    5.369535      0.00001    500.0    l1_kh       1.0000    0.0000   1
pp_383_l1     log   factor    5.752769      0.00001    500.0    l1_kh       1.0000    0.0000   1
pp_384_l1     log   factor    11.77334      0.00001    500.0    l1_kh       1.0000    0.0000   1
pp_387_l1     log   factor    7.367938      0.00001    500.0    l1_kh       1.0000    0.0000   1
pp_388_l1     log   factor    10.97599      0.00001    500.0    l1_kh       1.0000    0.0000   1
pp_389_l1     log   factor    8.549245      0.00001    500.0    l1_kh       1.0000    0.0000   1
pp_390_l1     log   factor    5.676347      0.00001    500.0    l1_kh       1.0000    0.0000   1
pp_392_l1     log   factor    3.878043      0.00001    500.0    l1_kh       1.0000    0.0000   1
pp_394_l1     log   factor   0.1584301      0.00001    500.0    l1_kh       1.0000    0.0000   1
pp_396_l1     log   factor    8.301108      0.00001    500.0    l1_kh       1.0000    0.0000   1
pp_397_l1     log   factor    5.057475      0.00001    500.0    l1_kh       1.0000    0.0000   1
pp_398_l1     log   factor    14.26492      0.00001    500.0    l1_kh       1.0000    0.0000   1
pp_399_l1     log   factor    32.41559      0.00001    500.0    l1_kh       1.0000    0.0000   1
pp_401_l1     log   factor    8.117936      0.00001    500.0    l1_kh       1.0000    0.0000   1
pp_402_l1     log   factor    4.352290      0.00001    500.0    l1_kh       1.0000    0.0000   1
pp_403_l1     log   factor    29.35079      0.00001    500.0    l1_kh       1.0000    0.0000   1
pp_404_l1     log   factor    500.0000      0.00001    500.0    l1_kh       1.0000    0.0000   1
pp_406_l1     log   factor    6.878465      0.00001    500.0    l1_kh       1.0000    0.0000   1
pp_407_l1     log   factor    46.99403      0.00001    500.0    l1_kh       1.0000    0.0000   1
pp_409_l1     log   factor    5.838262      0.00001    500.0    l1_kh       1.0000    0.0000   1
pp_410_l1     log   factor    7.659060      0.00001    500.0    l1_kh       1.0000    0.0000   1
pp_411_l1     log   factor    2.214484      0.00001    500.0    l1_kh       1.0000    0.0000   1
pp_412_l1     log   factor    7.635086      0.00001    500.0    l1_kh       1.0000    0.0000   1
pp_417_l1     log   factor    5.093933      0.00001    500.0    l1_kh       1.0000    0.0000   1
pp_419_l1     log   factor    2.799715      0.00001    500.0    l1_kh       1.0000    0.0000   1
pp_420_l1     log   factor    11.37409      0.00001    500.0    l1_kh       1.0000    0.0000   1
pp_421_l1     log   factor    9.262489      0.00001    500.0    l1_kh       1.0000    0.0000   1
pp_422_l1     log   factor    6.494535      0.00001    500.0    l1_kh       1.0000    0.0000   1
pp_423_l1     log   factor    4.553073      0.00001    500.0    l1_kh       1.0000    0.0000   1
pp_424_l1     log   factor    4.503906      0.00001    500.0    l1_kh       1.0000    0.0000   1
pp_425_l1     log   factor    7.931787      0.00001    500.0    l1_kh       1.0000    0.0000   1
pp_426_l1     log   factor    47.95292      0.00001    500.0    l1_kh       1.0000    0.0000   1
pp_428_l1     log   factor    7.271618      0.00001    500.0    l1_kh       1.0000    0.0000   1
pp_429_l1     log   factor    13.84820      0.00001    500.0    l1_kh       1.0000    0.0000   1
pp_430_l1     log   factor    8.772927      0.00001    500.0    l1_kh       1.0000    0.0000   1
pp_432_l1     log   factor    13.78959      0.00001    500.0    l1_kh       1.0000    0.0000   1
pp_433_l1     log   factor    14.22598      0.00001    500.0    l1_kh       1.0000    0.0000   1
pp_434_l1     log   factor    500.0000      0.00001    500.0    l1_kh       1.0000    0.0000   1
pp_435_l1     log   factor    24.26073      0.00001    500.0    l1_kh       1.0000    0.0000   1
pp_436_l1     log   factor    3.783207      0.00001    500.0    l1_kh       1.0000    0.0000   1
pp_438_l1     log   factor    3.328310      0.00001    500.0    l1_kh       1.0000    0.0000   1
pp_442_l1     log   factor    9.377702      0.00001    500.0    l1_kh       1.0000    0.0000   1
pp_444_l1     log   factor    6.327841      0.00001    500.0    l1_kh       1.0000    0.0000   1
pp_445_l1     log   factor    4.732255      0.00001    500.0    l1_kh       1.0000    0.0000   1
pp_446_l1     log   factor    6.305805      0.00001    500.0    l1_kh       1.0000    0.0000   1
pp_447_l1     log   factor    7.074036      0.00001    500.0    l1_kh       1.0000    0.0000   1
pp_448_l1     log   factor    4.250025      0.00001    500.0    l1_kh       1.0000    0.0000   1
pp_450_l1     log   factor    13.48922      0.00001    500.0    l1_kh       1.0000    0.0000   1
pp_455_l1     log   factor    3.815041      0.00001    500.0    l1_kh       1.0000    0.0000   1
pp_456_l1     log   factor    500.0000      0.00001    500.0    l1_kh       1.0000    0.0000   1
pp_458_l1     log   factor    23.40231      0.00001    500.0    l1_kh       1.0000    0.0000   1
pp_459_l1     log   factor    14.92567      0.00001    500.0    l1_kh       1.0000    0.0000   1
pp_460_l1     log   factor    2.665148      0.00001    500.0    l1_kh       1.0000    0.0000   1
pp_461_l1     log   factor    7.838850      0.00001    500.0    l1_kh       1.0000    0.0000   1
pp_462_l1     log   factor    6.132690      0.00001    500.0    l1_kh       1.0000    0.0000   1
pp_463_l1     log   factor    500.0000      0.00001    500.0    l1_kh       1.0000    0.0000   1
pp_464_l1     log   factor    1.948303      0.00001    500.0    l1_kh       1.0000    0.0000   1
pp_466_l1     log   factor    4.347191      0.00001    500.0    l1_kh       1.0000    0.0000   1
pp_468_l1     log   factor    9.482807      0.00001    500.0    l1_kh       1.0000    0.0000   1
pp_471_l1     log   factor    15.78238      0.00001    500.0    l1_kh       1.0000    0.0000   1
pp_472_l1     log   factor    109.8015      0.00001    500.0    l1_kh       1.0000    0.0000   1
pp_475_l1     log   factor    5.076599      0.00001    500.0    l1_kh       1.0000    0.0000   1
pp_483_l1     log   factor    9.792247      0.00001    500.0    l1_kh       1.0000    0.0000   1
pp_484_l1     log   factor    14.01472      0.00001    500.0    l1_kh       1.0000    0.0000   1
pp_485_l1     log   factor    500.0000      0.00001    500.0    l1_kh       1.0000    0.0000   1
pp_486_l1     log   factor    500.0000      0.00001    500.0    l1_kh       1.0000    0.0000   1
pp_488_l1     log   factor    19.04455      0.00001    500.0    l1_kh       1.0000    0.0000   1
pp_490_l1     log   factor    7.829219      0.00001    500.0    l1_kh       1.0000    0.0000   1
pp_493_l1     log   factor    5.970691      0.00001    500.0    l1_kh       1.0000    0.0000   1
pp_495_l1     log   factor    23.89412      0.00001    500.0    l1_kh       1.0000    0.0000   1
pp_496_l1     log   factor    14.88815      0.00001    500.0    l1_kh       1.0000    0.0000   1
pp_497_l1     log   factor    43.19474      0.00001    500.0    l1_kh       1.0000    0.0000   1
pp_498_l1     log   factor    4.944220      0.00001    500.0    l1_kh       1.0000    0.0000   1
pp_500_l1     log   factor    3.710453      0.00001    500.0    l1_kh       1.0000    0.0000   1
pp_502_l1     log   factor    3.261685      0.00001    500.0    l1_kh       1.0000    0.0000   1
pp_504_l1     log   factor    6.402004      0.00001    500.0    l1_kh       1.0000    0.0000   1
pp_506_l1     log   factor    4.005959      0.00001    500.0    l1_kh       1.0000    0.0000   1
pp_510_l1     log   factor    4.893720      0.00001    500.0    l1_kh       1.0000    0.0000   1
pp_511_l1     log   factor    5.367313      0.00001    500.0    l1_kh       1.0000    0.0000   1
pp_512_l1     log   factor    8.549054      0.00001    500.0    l1_kh       1.0000    0.0000   1
pp_513_l1     log   factor    4.671056      0.00001    500.0    l1_kh       1.0000    0.0000   1
pp_515_l1     log   factor    5.332506      0.00001    500.0    l1_kh       1.0000    0.0000   1
pp_517_l1     log   factor    7.846719      0.00001    500.0    l1_kh       1.0000    0.0000   1
pp_518_l1     log   factor    6.588670      0.00001    500.0    l1_kh       1.0000    0.0000   1
pp_519_l1     log   factor    4.764545      0.00001    500.0    l1_kh       1.0000    0.0000   1
pp_521_l1     log   factor    4.034235      0.00001    500.0    l1_kh       1.0000    0.0000   1
pp_522_l1     log   factor    4.813002      0.00001    500.0    l1_kh       1.0000    0.0000   1
pp_523_l1     log   factor    4.709484      0.00001    500.0    l1_kh       1.0000    0.0000   1
pp_524_l1     log   factor    5.263448      0.00001    500.0    l1_kh       1.0000    0.0000   1
pp_526_l1     log   factor    3.426252      0.00001    500.0    l1_kh       1.0000    0.0000   1
pp_529_l1     log   factor    5.506314      0.00001    500.0    l1_kh       1.0000    0.0000   1
pp_530_l1     log   factor    7.207797      0.00001    500.0    l1_kh       1.0000    0.0000   1
pp_531_l1     log   factor    7.247550      0.00001    500.0    l1_kh       1.0000    0.0000   1
pp_538_l1     log   factor    4.510831      0.00001    500.0    l1_kh       1.0000    0.0000   1
pp_543_l1     log   factor    3.169099      0.00001    500.0    l1_kh       1.0000    0.0000   1
pp_550_l1     log   factor    5.467920      0.00001    500.0    l1_kh       1.0000    0.0000   1
pp_551_l1     log   factor    6.976547      0.00001    500.0    l1_kh       1.0000    0.0000   1
pp_552_l1     log   factor    4.792864      0.00001    500.0    l1_kh       1.0000    0.0000   1
pp_554_l1     log   factor    6.467586      0.00001    500.0    l1_kh       1.0000    0.0000   1
pp_555_l1     log   factor    4.351303      0.00001    500.0    l1_kh       1.0000    0.0000   1
pp_556_l1     log   factor    5.758751      0.00001    500.0    l1_kh       1.0000    0.0000   1
pp_557_l1     log   factor    6.871188      0.00001    500.0    l1_kh       1.0000    0.0000   1
pp_558_l1     log   factor    10.64227      0.00001    500.0    l1_kh       1.0000    0.0000   1
pp_565_l1     log   factor    13.44126      0.00001    500.0    l1_kh       1.0000    0.0000   1
pp_566_l1     log   factor    85.59571      0.00001    500.0    l1_kh       1.0000    0.0000   1
pp_568_l1     log   factor    5.704601      0.00001    500.0    l1_kh       1.0000    0.0000   1
pp_572_l1     log   factor    5.452152      0.00001    500.0    l1_kh       1.0000    0.0000   1
pp_576_l1     log   factor    5.839657      0.00001    500.0    l1_kh       1.0000    0.0000   1
pp_577_l1     log   factor    5.514511      0.00001    500.0    l1_kh       1.0000    0.0000   1
pp_578_l1     log   factor    3.066469      0.00001    500.0    l1_kh       1.0000    0.0000   1
pp_579_l1     log   factor    2.211568      0.00001    500.0    l1_kh       1.0000    0.0000   1
pp_580_l1     log   factor    4.431035      0.00001    500.0    l1_kh       1.0000    0.0000   1
pp_581_l1     log   factor    7.633418      0.00001    500.0    l1_kh       1.0000    0.0000   1
pp_582_l1     log   factor    13.28887      0.00001    500.0    l1_kh       1.0000    0.0000   1
pp_584_l1     log   factor    14.66205      0.00001    500.0    l1_kh       1.0000    0.0000   1
pp_587_l1     log   factor    5.269349      0.00001    500.0    l1_kh       1.0000    0.0000   1
pp_588_l1     log   factor    6.251672      0.00001    500.0    l1_kh       1.0000    0.0000   1
pp_590_l1     log   factor    2.387570      0.00001    500.0    l1_kh       1.0000    0.0000   1
pp_591_l1     log   factor    2.565183      0.00001    500.0    l1_kh       1.0000    0.0000   1
pp_592_l1     log   factor    8.009670      0.00001    500.0    l1_kh       1.0000    0.0000   1
pp_593_l1     log   factor    14.30211      0.00001    500.0    l1_kh       1.0000    0.0000   1
pp_594_l1     log   factor    10.48794      0.00001    500.0    l1_kh       1.0000    0.0000   1
pp_595_l1     log   factor    6.586522      0.00001    500.0    l1_kh       1.0000    0.0000   1
pp_597_l1     log   factor    4.305206      0.00001    500.0    l1_kh       1.0000    0.0000   1
pp_598_l1     log   factor    3.869165      0.00001    500.0    l1_kh       1.0000    0.0000   1