pcf
* control data
restart estimation
   2833    364     14      0       4
      6     20 single  point   1   0   0
  5.0  -3.0   0.3  0.03    10
 15.0  15.0 0.001  0
  0.1
   50  0.01     3     3  0.01     3
    1     1     1
* singular value decomposition
         1
      2000     1E-07
         0
* parameter groups
FINF           relative   0.025  0.0   Always_3  2.0 outside_pts
StrmBed        relative   0.025  0.0   Always_3  2.0 outside_pts
L1_Kh          relative   0.025  0.0   Always_3  2.0 outside_pts
L2_Kh_Zn2      relative   0.025  0.0   Always_3  2.0 outside_pts
L2_Kh_Zn3      relative   0.025  0.0   Always_3  2.0 outside_pts
L2_Kh_Zn4      relative   0.025  0.0   Always_3  2.0 outside_pts
L2_Kh_Zn5      relative   0.025  0.0   Always_3  2.0 outside_pts
L2_Kh_Zn6      relative   0.025  0.0   Always_3  2.0 outside_pts
L2_Kh_Zn7      relative   0.025  0.0   Always_3  2.0 outside_pts
L2_Kh_Zn8      relative   0.025  0.0   Always_3  2.0 outside_pts
L2_Kh_Zn9      relative   0.025  0.0   Always_3  2.0 outside_pts
L3_Kh_Zn10     relative   0.025  0.0   Always_3  2.0 outside_pts
SurfK_Alluv    relative   0.025  0.0   Always_3  2.0 outside_pts
SurfK_Mtn      relative   0.025  0.0   Always_3  2.0 outside_pts
* parameter data
finf          log   factor   0.3769919      0.10000    1.000    finf        1.0000    0.0000   1
extdp         log   factor   0.5837469      0.10000    1.000    finf        1.0000    0.0000   1
pp_3_l1       log   factor    4.120018      0.00001    500.0    l1_kh       1.0000    0.0000   1
pp_4_l1       log   factor    4.010339      0.00001    500.0    l1_kh       1.0000    0.0000   1
pp_9_l1       log   factor    2.928669      0.00001    500.0    l1_kh       1.0000    0.0000   1
pp_10_l1      log   factor    5.835170      0.00001    500.0    l1_kh       1.0000    0.0000   1
pp_12_l1      log   factor    5.059626      0.00001    500.0    l1_kh       1.0000    0.0000   1
pp_16_l1      log   factor    15.62577      0.00001    500.0    l1_kh       1.0000    0.0000   1
pp_17_l1      log   factor    2.022675      0.00001    500.0    l1_kh       1.0000    0.0000   1
pp_18_l1      log   factor    5.049339      0.00001    500.0    l1_kh       1.0000    0.0000   1
pp_23_l1      log   factor    5.567258      0.00001    500.0    l1_kh       1.0000    0.0000   1
pp_24_l1      log   factor    4.021571      0.00001    500.0    l1_kh       1.0000    0.0000   1
pp_26_l1      log   factor    13.50010      0.00001    500.0    l1_kh       1.0000    0.0000   1
pp_27_l1      log   factor    4.004287      0.00001    500.0    l1_kh       1.0000    0.0000   1
pp_29_l1      log   factor    5.677866      0.00001    500.0    l1_kh       1.0000    0.0000   1
pp_30_l1      log   factor    5.319612      0.00001    500.0    l1_kh       1.0000    0.0000   1
pp_34_l1      log   factor    4.912606      0.00001    500.0    l1_kh       1.0000    0.0000   1
pp_35_l1      log   factor    4.449586      0.00001    500.0    l1_kh       1.0000    0.0000   1
pp_36_l1      log   factor    6.877841      0.00001    500.0    l1_kh       1.0000    0.0000   1
pp_39_l1      log   factor    4.534601      0.00001    500.0    l1_kh       1.0000    0.0000   1
pp_41_l1      log   factor    3.723763      0.00001    500.0    l1_kh       1.0000    0.0000   1
pp_42_l1      log   factor    3.399490      0.00001    500.0    l1_kh       1.0000    0.0000   1
pp_45_l1      log   factor    4.502513      0.00001    500.0    l1_kh       1.0000    0.0000   1
pp_47_l1      log   factor    4.874592      0.00001    500.0    l1_kh       1.0000    0.0000   1
pp_50_l1      log   factor    4.415281      0.00001    500.0    l1_kh       1.0000    0.0000   1
pp_51_l1      log   factor    5.376873      0.00001    500.0    l1_kh       1.0000    0.0000   1
pp_54_l1      log   factor    5.406020      0.00001    500.0    l1_kh       1.0000    0.0000   1
pp_56_l1      log   factor    6.213261      0.00001    500.0    l1_kh       1.0000    0.0000   1
pp_58_l1      log   factor    5.374597      0.00001    500.0    l1_kh       1.0000    0.0000   1
pp_61_l1      log   factor    6.168099      0.00001    500.0    l1_kh       1.0000    0.0000   1
pp_63_l1      log   factor    5.345591      0.00001    500.0    l1_kh       1.0000    0.0000   1
pp_68_l1      log   factor    4.563483      0.00001    500.0    l1_kh       1.0000    0.0000   1
pp_71_l1      log   factor    12.06244      0.00001    500.0    l1_kh       1.0000    0.0000   1
pp_77_l1      log   factor    6.656787      0.00001    500.0    l1_kh       1.0000    0.0000   1
pp_78_l1      log   factor    7.492950      0.00001    500.0    l1_kh       1.0000    0.0000   1
pp_82_l1      log   factor    6.060679      0.00001    500.0    l1_kh       1.0000    0.0000   1
pp_88_l1      log   factor    4.239231      0.00001    500.0    l1_kh       1.0000    0.0000   1
pp_90_l1      log   factor    6.227776      0.00001    500.0    l1_kh       1.0000    0.0000   1
pp_91_l1      log   factor    6.675370      0.00001    500.0    l1_kh       1.0000    0.0000   1
pp_93_l1      log   factor    7.658243      0.00001    500.0    l1_kh       1.0000    0.0000   1
pp_94_l1      log   factor    5.266994      0.00001    500.0    l1_kh       1.0000    0.0000   1
pp_95_l1      log   factor    4.903080      0.00001    500.0    l1_kh       1.0000    0.0000   1
pp_96_l1      log   factor    18.19947      0.00001    500.0    l1_kh       1.0000    0.0000   1
pp_98_l1      log   factor    7.690118      0.00001    500.0    l1_kh       1.0000    0.0000   1
pp_99_l1      log   factor    6.974693      0.00001    500.0    l1_kh       1.0000    0.0000   1
pp_101_l1     log   factor    12.46595      0.00001    500.0    l1_kh       1.0000    0.0000   1
pp_103_l1     log   factor    9.162030      0.00001    500.0    l1_kh       1.0000    0.0000   1
pp_105_l1     log   factor    4.637711      0.00001    500.0    l1_kh       1.0000    0.0000   1
pp_107_l1     log   factor    8.237083      0.00001    500.0    l1_kh       1.0000    0.0000   1
pp_108_l1     log   factor   0.2678741      0.00001    500.0    l1_kh       1.0000    0.0000   1
pp_110_l1     log   factor    5.487357      0.00001    500.0    l1_kh       1.0000    0.0000   1
pp_114_l1     log   factor    4.926597      0.00001    500.0    l1_kh       1.0000    0.0000   1
pp_117_l1     log   factor    4.663994      0.00001    500.0    l1_kh       1.0000    0.0000   1
pp_119_l1     log   factor    4.669376      0.00001    500.0    l1_kh       1.0000    0.0000   1
pp_122_l1     log   factor    5.902249      0.00001    500.0    l1_kh       1.0000    0.0000   1
pp_125_l1     log   factor    1.539491      0.00001    500.0    l1_kh       1.0000    0.0000   1
pp_126_l1     log   factor    4.566580      0.00001    500.0    l1_kh       1.0000    0.0000   1
pp_127_l1     log   factor    5.423604      0.00001    500.0    l1_kh       1.0000    0.0000   1
pp_128_l1     log   factor    3.161268      0.00001    500.0    l1_kh       1.0000    0.0000   1
pp_129_l1     log   factor    2.129880      0.00001    500.0    l1_kh       1.0000    0.0000   1
pp_135_l1     log   factor    4.594865      0.00001    500.0    l1_kh       1.0000    0.0000   1
pp_142_l1     log   factor    4.282573      0.00001    500.0    l1_kh       1.0000    0.0000   1
pp_145_l1     log   factor    4.417477      0.00001    500.0    l1_kh       1.0000    0.0000   1
pp_148_l1     log   factor    3.837822      0.00001    500.0    l1_kh       1.0000    0.0000   1
pp_152_l1     log   factor    4.611550      0.00001    500.0    l1_kh       1.0000    0.0000   1
pp_153_l1     log   factor    4.459778      0.00001    500.0    l1_kh       1.0000    0.0000   1
pp_155_l1     log   factor    5.090764      0.00001    500.0    l1_kh       1.0000    0.0000   1
pp_159_l1     log   factor    4.591836      0.00001    500.0    l1_kh       1.0000    0.0000   1
pp_160_l1     log   factor    5.133248      0.00001    500.0    l1_kh       1.0000    0.0000   1
pp_164_l1     log   factor    5.379158      0.00001    500.0    l1_kh       1.0000    0.0000   1
pp_166_l1     log   factor    5.173585      0.00001    500.0    l1_kh       1.0000    0.0000   1
pp_167_l1     log   factor    5.882292      0.00001    500.0    l1_kh       1.0000    0.0000   1
pp_168_l1     log   factor    6.057524      0.00001    500.0    l1_kh       1.0000    0.0000   1
pp_170_l1     log   factor    6.620214      0.00001    500.0    l1_kh       1.0000    0.0000   1
pp_174_l1     log   factor    4.880884      0.00001    500.0    l1_kh       1.0000    0.0000   1
pp_179_l1     log   factor    4.943061      0.00001    500.0    l1_kh       1.0000    0.0000   1
pp_182_l1     log   factor    8.544823      0.00001    500.0    l1_kh       1.0000    0.0000   1
pp_187_l1     log   factor    6.452068      0.00001    500.0    l1_kh       1.0000    0.0000   1
pp_189_l1     log   factor    5.545816      0.00001    500.0    l1_kh       1.0000    0.0000   1
pp_190_l1     log   factor    4.464943      0.00001    500.0    l1_kh       1.0000    0.0000   1
pp_191_l1     log   factor    3.765170      0.00001    500.0    l1_kh       1.0000    0.0000   1
pp_193_l1     log   factor    5.173349      0.00001    500.0    l1_kh       1.0000    0.0000   1
pp_198_l1     log   factor    5.578261      0.00001    500.0    l1_kh       1.0000    0.0000   1
pp_200_l1     log   factor    1.938737      0.00001    500.0    l1_kh       1.0000    0.0000   1
pp_201_l1     log   factor    5.216709      0.00001    500.0    l1_kh       1.0000    0.0000   1
pp_202_l1     log   factor    4.057279      0.00001    500.0    l1_kh       1.0000    0.0000   1
pp_205_l1     log   factor    5.182839      0.00001    500.0    l1_kh       1.0000    0.0000   1
pp_206_l1     log   factor    5.119029      0.00001    500.0    l1_kh       1.0000    0.0000   1
pp_207_l1     log   factor    5.022078      0.00001    500.0    l1_kh       1.0000    0.0000   1
pp_208_l1     log   factor    4.818664      0.00001    500.0    l1_kh       1.0000    0.0000   1
pp_209_l1     log   factor    3.771507      0.00001    500.0    l1_kh       1.0000    0.0000   1
pp_210_l1     log   factor    5.032655      0.00001    500.0    l1_kh       1.0000    0.0000   1
pp_212_l1     log   factor    4.864293      0.00001    500.0    l1_kh       1.0000    0.0000   1
pp_214_l1     log   factor    4.916755      0.00001    500.0    l1_kh       1.0000    0.0000   1
pp_215_l1     log   factor    5.195824      0.00001    500.0    l1_kh       1.0000    0.0000   1
pp_216_l1     log   factor    8.680621      0.00001    500.0    l1_kh       1.0000    0.0000   1
pp_217_l1     log   factor    4.833490      0.00001    500.0    l1_kh       1.0000    0.0000   1
pp_218_l1     log   factor    4.838582      0.00001    500.0    l1_kh       1.0000    0.0000   1
pp_219_l1     log   factor    5.583835      0.00001    500.0    l1_kh       1.0000    0.0000   1
pp_222_l1     log   factor    4.544108      0.00001    500.0    l1_kh       1.0000    0.0000   1
pp_224_l1     log   factor    5.683952      0.00001    500.0    l1_kh       1.0000    0.0000   1
pp_225_l1     log   factor    5.202981      0.00001    500.0    l1_kh       1.0000    0.0000   1
pp_226_l1     log   factor    4.967627      0.00001    500.0    l1_kh       1.0000    0.0000   1
pp_227_l1     log   factor    6.354114      0.00001    500.0    l1_kh       1.0000    0.0000   1
pp_229_l1     log   factor    4.087172      0.00001    500.0    l1_kh       1.0000    0.0000   1
pp_233_l1     log   factor    4.286902      0.00001    500.0    l1_kh       1.0000    0.0000   1
pp_235_l1     log   factor    4.391745      0.00001    500.0    l1_kh       1.0000    0.0000   1
pp_236_l1     log   factor    4.029644      0.00001    500.0    l1_kh       1.0000    0.0000   1
pp_237_l1     log   factor    4.373601      0.00001    500.0    l1_kh       1.0000    0.0000   1
pp_241_l1     log   factor    4.323377      0.00001    500.0    l1_kh       1.0000    0.0000   1
pp_242_l1     log   factor    1.464194      0.00001    500.0    l1_kh       1.0000    0.0000   1
pp_243_l1     log   factor    5.588482      0.00001    500.0    l1_kh       1.0000    0.0000   1
pp_245_l1     log   factor    3.795253      0.00001    500.0    l1_kh       1.0000    0.0000   1
pp_246_l1     log   factor    2.783260      0.00001    500.0    l1_kh       1.0000    0.0000   1
pp_247_l1     log   factor    2.158811      0.00001    500.0    l1_kh       1.0000    0.0000   1
pp_251_l1     log   factor    6.560085      0.00001    500.0    l1_kh       1.0000    0.0000   1
pp_252_l1     log   factor    5.612189      0.00001    500.0    l1_kh       1.0000    0.0000   1
pp_253_l1     log   factor    9.611109      0.00001    500.0    l1_kh       1.0000    0.0000   1
pp_254_l1     log   factor    11.39266      0.00001    500.0    l1_kh       1.0000    0.0000   1
pp_255_l1     log   factor    6.872274      0.00001    500.0    l1_kh       1.0000    0.0000   1
pp_257_l1     log   factor    10.35316      0.00001    500.0    l1_kh       1.0000    0.0000   1
pp_258_l1     log   factor    10.74664      0.00001    500.0    l1_kh       1.0000    0.0000   1
pp_259_l1     log   factor    25.19717      0.00001    500.0    l1_kh       1.0000    0.0000   1
pp_260_l1     log   factor    9.945095      0.00001    500.0    l1_kh       1.0000    0.0000   1
pp_264_l1     log   factor    1.559707      0.00001    500.0    l1_kh       1.0000    0.0000   1
pp_269_l1     log   factor    5.636807      0.00001    500.0    l1_kh       1.0000    0.0000   1
pp_272_l1     log   factor    2.295465      0.00001    500.0    l1_kh       1.0000    0.0000   1
pp_273_l1     log   factor    25.20228      0.00001    500.0    l1_kh       1.0000    0.0000   1
pp_277_l1     log   factor    5.754010      0.00001    500.0    l1_kh       1.0000    0.0000   1
pp_278_l1     log   factor    5.027906      0.00001    500.0    l1_kh       1.0000    0.0000   1
pp_282_l1     log   factor    3.405469      0.00001    500.0    l1_kh       1.0000    0.0000   1
pp_286_l1     log   factor    3.941131      0.00001    500.0    l1_kh       1.0000    0.0000   1
pp_290_l1     log   factor    5.059679      0.00001    500.0    l1_kh       1.0000    0.0000   1
pp_291_l1     log   factor    2.295881      0.00001    500.0    l1_kh       1.0000    0.0000   1
pp_294_l1     log   factor    2.631248      0.00001    500.0    l1_kh       1.0000    0.0000   1
pp_295_l1     log   factor    20.25701      0.00001    500.0    l1_kh       1.0000    0.0000   1
pp_296_l1     log   factor    6.107787      0.00001    500.0    l1_kh       1.0000    0.0000   1
pp_302_l1     log   factor    24.14095      0.00001    500.0    l1_kh       1.0000    0.0000   1
pp_303_l1     log   factor    4.494742      0.00001    500.0    l1_kh       1.0000    0.0000   1
pp_306_l1     log   factor    13.11868      0.00001    500.0    l1_kh       1.0000    0.0000   1
pp_307_l1     log   factor    8.335541      0.00001    500.0    l1_kh       1.0000    0.0000   1
pp_309_l1     log   factor    1.292433      0.00001    500.0    l1_kh       1.0000    0.0000   1
pp_313_l1     log   factor    4.283873      0.00001    500.0    l1_kh       1.0000    0.0000   1
pp_318_l1     log   factor    14.65926      0.00001    500.0    l1_kh       1.0000    0.0000   1
pp_321_l1     log   factor    4.374487      0.00001    500.0    l1_kh       1.0000    0.0000   1
pp_323_l1     log   factor    2.192056      0.00001    500.0    l1_kh       1.0000    0.0000   1
pp_324_l1     log   factor    6.115774      0.00001    500.0    l1_kh       1.0000    0.0000   1
pp_325_l1     log   factor    1.648405      0.00001    500.0    l1_kh       1.0000    0.0000   1
pp_330_l1     log   factor    5.078430      0.00001    500.0    l1_kh       1.0000    0.0000   1
pp_340_l1     log   factor    5.076523      0.00001    500.0    l1_kh       1.0000    0.0000   1
pp_342_l1     log   factor    7.361027      0.00001    500.0    l1_kh       1.0000    0.0000   1
pp_344_l1     log   factor    4.867181      0.00001    500.0    l1_kh       1.0000    0.0000   1
pp_345_l1     log   factor    4.581710      0.00001    500.0    l1_kh       1.0000    0.0000   1
pp_347_l1     log   factor    4.010524      0.00001    500.0    l1_kh       1.0000    0.0000   1
pp_348_l1     log   factor    5.021577      0.00001    500.0    l1_kh       1.0000    0.0000   1
pp_352_l1     log   factor    16.94863      0.00001    500.0    l1_kh       1.0000    0.0000   1
pp_355_l1     log   factor    1.717063      0.00001    500.0    l1_kh       1.0000    0.0000   1
pp_358_l1     log   factor    11.43932      0.00001    500.0    l1_kh       1.0000    0.0000   1
pp_366_l1     log   factor    21.81926      0.00001    500.0    l1_kh       1.0000    0.0000   1
pp_370_l1     log   factor   0.6111689      0.00001    500.0    l1_kh       1.0000    0.0000   1
pp_372_l1     log   factor    7.093153      0.00001    500.0    l1_kh       1.0000    0.0000   1
pp_374_l1     log   factor    7.913052      0.00001    500.0    l1_kh       1.0000    0.0000   1
pp_376_l1     log   factor    5.692169      0.00001    500.0    l1_kh       1.0000    0.0000   1
pp_377_l1     log   factor    10.62782      0.00001    500.0    l1_kh       1.0000    0.0000   1
pp_378_l1     log   factor    6.727483      0.00001    500.0    l1_kh       1.0000    0.0000   1
pp_379_l1     log   factor   0.6708108      0.00001    500.0    l1_kh       1.0000    0.0000   1
pp_380_l1     log   factor   0.2662718      0.00001    500.0    l1_kh       1.0000    0.0000   1
pp_381_l1     log   factor    7.575700      0.00001    500.0    l1_kh       1.0000    0.0000   1
pp_382_l1     log   factor    4.528464      0.00001    500.0    l1_kh       1.0000    0.0000   1
pp_383_l1     log   factor    5.916127      0.00001    500.0    l1_kh       1.0000    0.0000   1
pp_384_l1     log   factor    11.93635      0.00001    500.0    l1_kh       1.0000    0.0000   1
pp_387_l1     log   factor    6.213210      0.00001    500.0    l1_kh       1.0000    0.0000   1
pp_388_l1     log   factor    10.78093      0.00001    500.0    l1_kh       1.0000    0.0000   1
pp_389_l1     log   factor    2.801611      0.00001    500.0    l1_kh       1.0000    0.0000   1
pp_390_l1     log   factor    5.685804      0.00001    500.0    l1_kh       1.0000    0.0000   1
pp_392_l1     log   factor    8.284975      0.00001    500.0    l1_kh       1.0000    0.0000   1
pp_394_l1     log   factor   0.1539782      0.00001    500.0    l1_kh       1.0000    0.0000   1
pp_396_l1     log   factor    8.440369      0.00001    500.0    l1_kh       1.0000    0.0000   1
pp_397_l1     log   factor    4.928446      0.00001    500.0    l1_kh       1.0000    0.0000   1
pp_398_l1     log   factor    7.546355      0.00001    500.0    l1_kh       1.0000    0.0000   1
pp_399_l1     log   factor    18.58310      0.00001    500.0    l1_kh       1.0000    0.0000   1
pp_401_l1     log   factor    9.368676      0.00001    500.0    l1_kh       1.0000    0.0000   1
pp_402_l1     log   factor    3.482998      0.00001    500.0    l1_kh       1.0000    0.0000   1
pp_403_l1     log   factor    23.68052      0.00001    500.0    l1_kh       1.0000    0.0000   1
pp_404_l1     log   factor    44.02072      0.00001    500.0    l1_kh       1.0000    0.0000   1
pp_406_l1     log   factor    10.57923      0.00001    500.0    l1_kh       1.0000    0.0000   1
pp_407_l1     log   factor    52.90883      0.00001    500.0    l1_kh       1.0000    0.0000   1
pp_409_l1     log   factor    13.94050      0.00001    500.0    l1_kh       1.0000    0.0000   1
pp_410_l1     log   factor    7.717747      0.00001    500.0    l1_kh       1.0000    0.0000   1
pp_411_l1     log   factor    3.245652      0.00001    500.0    l1_kh       1.0000    0.0000   1
pp_412_l1     log   factor    7.980635      0.00001    500.0    l1_kh       1.0000    0.0000   1
pp_417_l1     log   factor    4.615526      0.00001    500.0    l1_kh       1.0000    0.0000   1
pp_419_l1     log   factor    2.825251      0.00001    500.0    l1_kh       1.0000    0.0000   1
pp_420_l1     log   factor    3.834296      0.00001    500.0    l1_kh       1.0000    0.0000   1
pp_421_l1     log   factor    9.268660      0.00001    500.0    l1_kh       1.0000    0.0000   1
pp_422_l1     log   factor    6.463282      0.00001    500.0    l1_kh       1.0000    0.0000   1
pp_423_l1     log   factor    4.513991      0.00001    500.0    l1_kh       1.0000    0.0000   1
pp_424_l1     log   factor    5.805017      0.00001    500.0    l1_kh       1.0000    0.0000   1
pp_425_l1     log   factor    7.792079      0.00001    500.0    l1_kh       1.0000    0.0000   1
pp_426_l1     log   factor    58.31657      0.00001    500.0    l1_kh       1.0000    0.0000   1
pp_428_l1     log   factor    7.263827      0.00001    500.0    l1_kh       1.0000    0.0000   1
pp_429_l1     log   factor    15.34426      0.00001    500.0    l1_kh       1.0000    0.0000   1
pp_430_l1     log   factor    8.745593      0.00001    500.0    l1_kh       1.0000    0.0000   1
pp_432_l1     log   factor    12.64537      0.00001    500.0    l1_kh       1.0000    0.0000   1
pp_433_l1     log   factor    16.49878      0.00001    500.0    l1_kh       1.0000    0.0000   1
pp_434_l1     log   factor    20.24085      0.00001    500.0    l1_kh       1.0000    0.0000   1
pp_435_l1     log   factor    23.85400      0.00001    500.0    l1_kh       1.0000    0.0000   1
pp_436_l1     log   factor    4.780160      0.00001    500.0    l1_kh       1.0000    0.0000   1
pp_438_l1     log   factor    4.928884      0.00001    500.0    l1_kh       1.0000    0.0000   1
pp_442_l1     log   factor    9.505929      0.00001    500.0    l1_kh       1.0000    0.0000   1
pp_444_l1     log   factor    6.037397      0.00001    500.0    l1_kh       1.0000    0.0000   1
pp_445_l1     log   factor    4.792394      0.00001    500.0    l1_kh       1.0000    0.0000   1
pp_446_l1     log   factor    6.563562      0.00001    500.0    l1_kh       1.0000    0.0000   1
pp_447_l1     log   factor    4.306698      0.00001    500.0    l1_kh       1.0000    0.0000   1
pp_448_l1     log   factor    3.486172      0.00001    500.0    l1_kh       1.0000    0.0000   1
pp_450_l1     log   factor    5.808778      0.00001    500.0    l1_kh       1.0000    0.0000   1
pp_455_l1     log   factor    3.847276      0.00001    500.0    l1_kh       1.0000    0.0000   1
pp_456_l1     log   factor    500.0000      0.00001    500.0    l1_kh       1.0000    0.0000   1
pp_458_l1     log   factor    29.43394      0.00001    500.0    l1_kh       1.0000    0.0000   1
pp_459_l1     log   factor    14.10394      0.00001    500.0    l1_kh       1.0000    0.0000   1
pp_460_l1     log   factor    2.683383      0.00001    500.0    l1_kh       1.0000    0.0000   1
pp_461_l1     log   factor    4.415170      0.00001    500.0    l1_kh       1.0000    0.0000   1
pp_462_l1     log   factor    5.505287      0.00001    500.0    l1_kh       1.0000    0.0000   1
pp_463_l1     log   factor    106.7998      0.00001    500.0    l1_kh       1.0000    0.0000   1
pp_464_l1     log   factor    2.616962      0.00001    500.0    l1_kh       1.0000    0.0000   1
pp_466_l1     log   factor    4.480223      0.00001    500.0    l1_kh       1.0000    0.0000   1
pp_468_l1     log   factor    8.939068      0.00001    500.0    l1_kh       1.0000    0.0000   1
pp_471_l1     log   factor    10.83131      0.00001    500.0    l1_kh       1.0000    0.0000   1
pp_472_l1     log   factor    38.12667      0.00001    500.0    l1_kh       1.0000    0.0000   1
pp_475_l1     log   factor    4.983559      0.00001    500.0    l1_kh       1.0000    0.0000   1
pp_483_l1     log   factor    6.633336      0.00001    500.0    l1_kh       1.0000    0.0000   1
pp_484_l1     log   factor    5.436111      0.00001    500.0    l1_kh       1.0000    0.0000   1
pp_485_l1     log   factor    19.27419      0.00001    500.0    l1_kh       1.0000    0.0000   1
pp_486_l1     log   factor    500.0000      0.00001    500.0    l1_kh       1.0000    0.0000   1
pp_488_l1     log   factor    16.33876      0.00001    500.0    l1_kh       1.0000    0.0000   1
pp_490_l1     log   factor    5.871368      0.00001    500.0    l1_kh       1.0000    0.0000   1
pp_493_l1     log   factor    5.681275      0.00001    500.0    l1_kh       1.0000    0.0000   1
pp_495_l1     log   factor    22.06121      0.00001    500.0    l1_kh       1.0000    0.0000   1
pp_496_l1     log   factor    6.931942      0.00001    500.0    l1_kh       1.0000    0.0000   1
pp_497_l1     log   factor    22.41187      0.00001    500.0    l1_kh       1.0000    0.0000   1
pp_498_l1     log   factor    4.382208      0.00001    500.0    l1_kh       1.0000    0.0000   1
pp_500_l1     log   factor    4.012271      0.00001    500.0    l1_kh       1.0000    0.0000   1
pp_502_l1     log   factor    3.333765      0.00001    500.0    l1_kh       1.0000    0.0000   1
pp_504_l1     log   factor    5.252576      0.00001    500.0    l1_kh       1.0000    0.0000   1
pp_506_l1     log   factor    4.141572      0.00001    500.0    l1_kh       1.0000    0.0000   1
pp_510_l1     log   factor    4.265952      0.00001    500.0    l1_kh       1.0000    0.0000   1
pp_511_l1     log   factor    4.774659      0.00001    500.0    l1_kh       1.0000    0.0000   1
pp_512_l1     log   factor    5.312631      0.00001    500.0    l1_kh       1.0000    0.0000   1
pp_513_l1     log   factor    4.636712      0.00001    500.0    l1_kh       1.0000    0.0000   1
pp_515_l1     log   factor    4.720043      0.00001    500.0    l1_kh       1.0000    0.0000   1
pp_517_l1     log   factor    7.466157      0.00001    500.0    l1_kh       1.0000    0.0000   1
pp_518_l1     log   factor    5.094556      0.00001    500.0    l1_kh       1.0000    0.0000   1
pp_519_l1     log   factor    4.613966      0.00001    500.0    l1_kh       1.0000    0.0000   1
pp_521_l1     log   factor    4.890243      0.00001    500.0    l1_kh       1.0000    0.0000   1
pp_522_l1     log   factor    4.956237      0.00001    500.0    l1_kh       1.0000    0.0000   1
pp_523_l1     log   factor    4.886817      0.00001    500.0    l1_kh       1.0000    0.0000   1
pp_524_l1     log   factor    5.048974      0.00001    500.0    l1_kh       1.0000    0.0000   1
pp_526_l1     log   factor    4.077531      0.00001    500.0    l1_kh       1.0000    0.0000   1
pp_529_l1     log   factor    5.565824      0.00001    500.0    l1_kh       1.0000    0.0000   1
pp_530_l1     log   factor    6.955813      0.00001    500.0    l1_kh       1.0000    0.0000   1
pp_531_l1     log   factor    4.928401      0.00001    500.0    l1_kh       1.0000    0.0000   1
pp_538_l1     log   factor    4.371432      0.00001    500.0    l1_kh       1.0000    0.0000   1
pp_543_l1     log   factor    3.968317      0.00001    500.0    l1_kh       1.0000    0.0000   1
pp_550_l1     log   factor    5.231650      0.00001    500.0    l1_kh       1.0000    0.0000   1
pp_551_l1     log   factor    7.185349      0.00001    500.0    l1_kh       1.0000    0.0000   1
pp_552_l1     log   factor    5.158957      0.00001    500.0    l1_kh       1.0000    0.0000   1
pp_554_l1     log   factor    5.366968      0.00001    500.0    l1_kh       1.0000    0.0000   1
pp_555_l1     log   factor    4.900286      0.00001    500.0    l1_kh       1.0000    0.0000   1
pp_556_l1     log   factor    5.854256      0.00001    500.0    l1_kh       1.0000    0.0000   1
pp_557_l1     log   factor    4.841665      0.00001    500.0    l1_kh       1.0000    0.0000   1
pp_558_l1     log   factor    8.023873      0.00001    500.0    l1_kh       1.0000    0.0000   1
pp_565_l1     log   factor    17.37299      0.00001    500.0    l1_kh       1.0000    0.0000   1
pp_566_l1     log   factor    17.89192      0.00001    500.0    l1_kh       1.0000    0.0000   1
pp_568_l1     log   factor    6.112449      0.00001    500.0    l1_kh       1.0000    0.0000   1
pp_572_l1     log   factor    5.227587      0.00001    500.0    l1_kh       1.0000    0.0000   1
pp_576_l1     log   factor    5.643978      0.00001    500.0    l1_kh       1.0000    0.0000   1
pp_577_l1     log   factor    5.484147      0.00001    500.0    l1_kh       1.0000    0.0000   1
pp_578_l1     log   factor    3.934738      0.00001    500.0    l1_kh       1.0000    0.0000   1
pp_579_l1     log   factor    2.237192      0.00001    500.0    l1_kh       1.0000    0.0000   1
pp_580_l1     log   factor    4.416905      0.00001    500.0    l1_kh       1.0000    0.0000   1
pp_581_l1     log   factor    7.239688      0.00001    500.0    l1_kh       1.0000    0.0000   1
pp_582_l1     log   factor    6.786103      0.00001    500.0    l1_kh       1.0000    0.0000   1
pp_584_l1     log   factor    30.37923      0.00001    500.0    l1_kh       1.0000    0.0000   1
pp_587_l1     log   factor    4.166193      0.00001    500.0    l1_kh       1.0000    0.0000   1
pp_588_l1     log   factor    5.821657      0.00001    500.0    l1_kh       1.0000    0.0000   1
pp_590_l1     log   factor    2.446142      0.00001    500.0    l1_kh       1.0000    0.0000   1
pp_591_l1     log   factor    10.55819      0.00001    500.0    l1_kh       1.0000    0.0000   1
pp_592_l1     log   factor    6.510009      0.00001    500.0    l1_kh       1.0000    0.0000   1
pp_593_l1     log   factor    9.116511      0.00001    500.0    l1_kh       1.0000    0.0000   1
pp_594_l1     log   factor    8.649828      0.00001    500.0    l1_kh       1.0000    0.0000   1
pp_595_l1     log   factor    6.478090      0.00001    500.0    l1_kh       1.0000    0.0000   1
pp_597_l1     log   factor    4.254319      0.00001    500.0    l1_kh       1.0000    0.0000   1
pp_598_l1     log   factor    6.610747      0.00001    500.0    l1_kh       1.0000    0.0000   1
pp_599_l1     log   factor    5.775179      0.00001    500.0    l1_kh       1.0000    0.0000   1
pp_600_l1     log   factor    2.486685      0.00001    500.0    l1_kh       1.0000    0.0000   1
pp_604_l1     log   factor    5.476283      0.00001    500.0    l1_kh       1.0000    0.0000   1