pcf
* control data
restart estimation
 3535   203     17      0   9
    8    21 single  point   1    0 0
  5.0  -3.0    0.3   0.03  10
 15.0  15.0  0.001      0
  0.1
   50  0.01      3      3  0.01    3
    1     1      1
* singular value decomposition
   1
 500   1E-07
   0
* parameter groups
FINF                relative     0.030            0.0      always_3            2.0      best_fit
pET                 relative     0.030            0.0      always_3            2.0      best_fit
StrmBed             relative     0.030            0.0      always_3            2.0      best_fit
L1_Kh               relative     0.030            0.0      always_3            2.0      best_fit
L2_Kh_Zn2           relative     0.030            0.0      always_3            2.0      best_fit
L2_Kh_Zn3           relative     0.030            0.0      always_3            2.0      best_fit
L2_Kh_Zn4           relative     0.030            0.0      always_3            2.0      best_fit
L2_Kh_Zn5           relative     0.030            0.0      always_3            2.0      best_fit
L2_Kh_Zn6           relative     0.030            0.0      always_3            2.0      best_fit
L2_Kh_Zn7           relative     0.030            0.0      always_3            2.0      best_fit
L2_Kh_Zn8           relative     0.030            0.0      always_3            2.0      best_fit
L2_Kh_Zn9           relative     0.030            0.0      always_3            2.0      best_fit
L3_Kh_Zn10          relative     0.030            0.0      always_3            2.0      best_fit
SurfK_Alluv         relative     0.030            0.0      always_3            2.0      best_fit
SurfK_Mtn           relative     0.030            0.0      always_3            2.0      best_fit
vks_alluv           relative     0.030            0.0      always_3            2.0      best_fit
vks_mtn             relative     0.030            0.0      always_3            2.0      best_fit
* parameter data
finf            log    factor   0.4639109      0.1                  1           finf    1    0    1
extdp           log    factor    1.000000      0.1                  1           finf    1    0    1
pet             log    factor    1.200000      0.5                1.2            pet    1    0    1
kh_lay_1      fixed    factor    1.041357      0.0001            1000          l1_kh    1    0    1
srfk_mult       log    factor   6.3381243E-03  0.0001              10    surfk_alluv    1    0    1
vks_mult        log    factor    1.964668      0.01                10    surfk_alluv    1    0    1
pp_3_l1         log    factor   8.3475625E-02  0.00001            500          l1_kh    1    0    1
pp_4_l1         log    factor   2.0876072E-02  0.00001            500          l1_kh    1    0    1
pp_9_l1         log    factor   6.9972575E-03  0.00001            500          l1_kh    1    0    1
pp_10_l1        log    factor    2.062452      0.00001            500          l1_kh    1    0    1
pp_12_l1        log    factor   2.1328725E-02  0.00001            500          l1_kh    1    0    1
pp_16_l1        log    factor   5.8027030E-02  0.00001            500          l1_kh    1    0    1
pp_17_l1        log    factor   9.0906523E-03  0.00001            500          l1_kh    1    0    1
pp_18_l1        log    factor   2.7503541E-02  0.00001            500          l1_kh    1    0    1
pp_23_l1        log    factor    1.950101      0.00001            500          l1_kh    1    0    1
pp_24_l1        log    factor    1.872136      0.00001            500          l1_kh    1    0    1
pp_26_l1        log    factor   4.5892641E-02  0.00001            500          l1_kh    1    0    1
pp_27_l1        log    factor   5.3293278E-02  0.00001            500          l1_kh    1    0    1
pp_29_l1        log    factor    1.949206      0.00001            500          l1_kh    1    0    1
pp_30_l1        log    factor   2.9243656E-02  0.00001            500          l1_kh    1    0    1
pp_34_l1        log    factor   1.9088059E-02  0.00001            500          l1_kh    1    0    1
pp_35_l1        log    factor   1.7547848E-02  0.00001            500          l1_kh    1    0    1
pp_36_l1        log    factor    1.976560      0.00001            500          l1_kh    1    0    1
pp_39_l1        log    factor   0.1113275      0.00001            500          l1_kh    1    0    1
pp_41_l1        log    factor   0.5523946      0.00001            500          l1_kh    1    0    1
pp_42_l1        log    factor    2.025648      0.00001            500          l1_kh    1    0    1
pp_45_l1        log    factor   6.4677048E-03  0.00001            500          l1_kh    1    0    1
pp_47_l1        log    factor   4.1982414E-02  0.00001            500          l1_kh    1    0    1
pp_50_l1        log    factor   8.3218901E-02  0.00001            500          l1_kh    1    0    1
pp_51_l1        log    factor   1.4111108E-02  0.00001            500          l1_kh    1    0    1
pp_54_l1        log    factor   0.1191120      0.00001            500          l1_kh    1    0    1
pp_56_l1        log    factor   1.3551440E-02  0.00001            500          l1_kh    1    0    1
pp_58_l1        log    factor   5.1447374E-02  0.00001            500          l1_kh    1    0    1
pp_61_l1        log    factor   3.1163916E-02  0.00001            500          l1_kh    1    0    1
pp_63_l1        log    factor   4.1864347E-02  0.00001            500          l1_kh    1    0    1
pp_68_l1        log    factor   1.3635410E-02  0.00001            500          l1_kh    1    0    1
pp_71_l1        log    factor   7.1857938E-02  0.00001            500          l1_kh    1    0    1
pp_77_l1        log    factor   1.1341342E-02  0.00001            500          l1_kh    1    0    1
pp_78_l1        log    factor   2.6098812E-02  0.00001            500          l1_kh    1    0    1
pp_82_l1        log    factor   0.1149188      0.00001            500          l1_kh    1    0    1
pp_88_l1        log    factor   2.1888836E-02  0.00001            500          l1_kh    1    0    1
pp_90_l1        log    factor   2.9959526E-02  0.00001            500          l1_kh    1    0    1
pp_91_l1        log    factor    1.000787      0.00001            500          l1_kh    1    0    1
pp_93_l1        log    factor   3.2055662E-02  0.00001            500          l1_kh    1    0    1
pp_94_l1        log    factor   2.1976323E-02  0.00001            500          l1_kh    1    0    1
pp_95_l1        log    factor   1.0731602E-02  0.00001            500          l1_kh    1    0    1
pp_96_l1        log    factor   8.2578778E-02  0.00001            500          l1_kh    1    0    1
pp_98_l1        log    factor   3.1749182E-02  0.00001            500          l1_kh    1    0    1
pp_99_l1        log    factor   3.0705412E-02  0.00001            500          l1_kh    1    0    1
pp_101_l1       log    factor   4.9022839E-02  0.00001            500          l1_kh    1    0    1
pp_103_l1       log    factor   3.1578079E-02  0.00001            500          l1_kh    1    0    1
pp_105_l1       log    factor   1.7475264E-02  0.00001            500          l1_kh    1    0    1
pp_107_l1       log    factor   3.0834607E-02  0.00001            500          l1_kh    1    0    1
pp_108_l1       log    factor   6.7527923E-04  0.00001            500          l1_kh    1    0    1
pp_110_l1       log    factor   2.1589416E-02  0.00001            500          l1_kh    1    0    1
pp_114_l1       log    factor   2.6406243E-02  0.00001            500          l1_kh    1    0    1
pp_117_l1       log    factor   1.6428432E-02  0.00001            500          l1_kh    1    0    1
pp_119_l1       log    factor   1.8464003E-02  0.00001            500          l1_kh    1    0    1
pp_122_l1       log    factor   2.2272441E-02  0.00001            500          l1_kh    1    0    1
pp_125_l1       log    factor   8.3973520E-03  0.00001            500          l1_kh    1    0    1
pp_126_l1       log    factor   1.8320089E-02  0.00001            500          l1_kh    1    0    1
pp_127_l1       log    factor   1.9285887E-02  0.00001            500          l1_kh    1    0    1
pp_128_l1       log    factor   1.4530108E-02  0.00001            500          l1_kh    1    0    1
pp_129_l1       log    factor   8.6965814E-03  0.00001            500          l1_kh    1    0    1
pp_135_l1       log    factor   1.8170141E-02  0.00001            500          l1_kh    1    0    1
pp_142_l1       log    factor   1.5844385E-02  0.00001            500          l1_kh    1    0    1
pp_145_l1       log    factor   1.2415974E-02  0.00001            500          l1_kh    1    0    1
pp_148_l1       log    factor   1.4975577E-02  0.00001            500          l1_kh    1    0    1
pp_152_l1       log    factor   1.7020625E-02  0.00001            500          l1_kh    1    0    1
pp_153_l1       log    factor   2.1248905E-02  0.00001            500          l1_kh    1    0    1
pp_155_l1       log    factor   2.1481163E-02  0.00001            500          l1_kh    1    0    1
pp_159_l1       log    factor   1.8410328E-02  0.00001            500          l1_kh    1    0    1
pp_160_l1       log    factor   1.8876485E-02  0.00001            500          l1_kh    1    0    1
pp_164_l1       log    factor   2.0874977E-02  0.00001            500          l1_kh    1    0    1
pp_166_l1       log    factor   2.1266121E-02  0.00001            500          l1_kh    1    0    1
pp_167_l1       log    factor   2.2743753E-02  0.00001            500          l1_kh    1    0    1
pp_168_l1       log    factor   2.5980874E-02  0.00001            500          l1_kh    1    0    1
pp_170_l1       log    factor   2.5064246E-02  0.00001            500          l1_kh    1    0    1
pp_174_l1       log    factor   1.9354372E-02  0.00001            500          l1_kh    1    0    1
pp_179_l1       log    factor   2.1228469E-02  0.00001            500          l1_kh    1    0    1
pp_182_l1       log    factor   3.1620154E-02  0.00001            500          l1_kh    1    0    1
pp_187_l1       log    factor   2.5623124E-02  0.00001            500          l1_kh    1    0    1
pp_189_l1       log    factor   2.2654278E-02  0.00001            500          l1_kh    1    0    1
pp_190_l1       log    factor   1.8503698E-02  0.00001            500          l1_kh    1    0    1
pp_191_l1       log    factor   1.5455184E-02  0.00001            500          l1_kh    1    0    1
pp_193_l1       log    factor   2.1797688E-02  0.00001            500          l1_kh    1    0    1
pp_198_l1       log    factor   4.1594377E-02  0.00001            500          l1_kh    1    0    1
pp_200_l1       log    factor   4.8601781E-03  0.00001            500          l1_kh    1    0    1
pp_201_l1       log    factor   1.9163749E-02  0.00001            500          l1_kh    1    0    1
pp_202_l1       log    factor   1.6052413E-02  0.00001            500          l1_kh    1    0    1
pp_205_l1       log    factor   2.0676772E-02  0.00001            500          l1_kh    1    0    1
pp_206_l1       log    factor   2.1762740E-02  0.00001            500          l1_kh    1    0    1
pp_207_l1       log    factor   1.9923580E-02  0.00001            500          l1_kh    1    0    1
pp_208_l1       log    factor   1.9823184E-02  0.00001            500          l1_kh    1    0    1
pp_209_l1       log    factor   1.4778718E-02  0.00001            500          l1_kh    1    0    1
pp_210_l1       log    factor   2.0902387E-02  0.00001            500          l1_kh    1    0    1
pp_212_l1       log    factor   2.5139365E-02  0.00001            500          l1_kh    1    0    1
pp_214_l1       log    factor   2.0398524E-02  0.00001            500          l1_kh    1    0    1
pp_215_l1       log    factor   2.1051531E-02  0.00001            500          l1_kh    1    0    1
pp_216_l1       log    factor   3.3223551E-02  0.00001            500          l1_kh    1    0    1
pp_217_l1       log    factor   1.9701600E-02  0.00001            500          l1_kh    1    0    1
pp_218_l1       log    factor   2.0175212E-02  0.00001            500          l1_kh    1    0    1
pp_219_l1       log    factor   2.2341572E-02  0.00001            500          l1_kh    1    0    1
pp_222_l1       log    factor   1.6571090E-02  0.00001            500          l1_kh    1    0    1
pp_224_l1       log    factor   2.4278338E-02  0.00001            500          l1_kh    1    0    1
pp_225_l1       log    factor   2.0839657E-02  0.00001            500          l1_kh    1    0    1
pp_226_l1       log    factor   1.9312282E-02  0.00001            500          l1_kh    1    0    1
pp_227_l1       log    factor   2.4028705E-02  0.00001            500          l1_kh    1    0    1
pp_229_l1       log    factor   1.3567506E-02  0.00001            500          l1_kh    1    0    1
pp_233_l1       log    factor   2.2603946E-02  0.00001            500          l1_kh    1    0    1
pp_235_l1       log    factor   2.6830768E-02  0.00001            500          l1_kh    1    0    1
pp_236_l1       log    factor   6.4723760E-02  0.00001            500          l1_kh    1    0    1
pp_237_l1       log    factor   0.1422864      0.00001            500          l1_kh    1    0    1
pp_241_l1       log    factor   3.8942025E-02  0.00001            500          l1_kh    1    0    1
pp_242_l1       log    factor   6.5538670E-03  0.00001            500          l1_kh    1    0    1
pp_243_l1       log    factor   3.0307771E-02  0.00001            500          l1_kh    1    0    1
pp_245_l1       log    factor   1.4376427E-02  0.00001            500          l1_kh    1    0    1
pp_246_l1       log    factor   9.3666127E-03  0.00001            500          l1_kh    1    0    1
pp_247_l1       log    factor   2.9753258E-03  0.00001            500          l1_kh    1    0    1
pp_251_l1       log    factor   0.1099366      0.00001            500          l1_kh    1    0    1
pp_252_l1       log    factor   2.9464109E-02  0.00001            500          l1_kh    1    0    1
pp_253_l1       log    factor   6.2842028E-02  0.00001            500          l1_kh    1    0    1
pp_254_l1       log    factor   5.3476617E-02  0.00001            500          l1_kh    1    0    1
pp_255_l1       log    factor   2.7430240E-02  0.00001            500          l1_kh    1    0    1
pp_257_l1       log    factor   3.8292922E-02  0.00001            500          l1_kh    1    0    1
pp_258_l1       log    factor   3.6991041E-02  0.00001            500          l1_kh    1    0    1
pp_259_l1       log    factor   0.1243677      0.00001            500          l1_kh    1    0    1
pp_260_l1       log    factor   3.6655548E-02  0.00001            500          l1_kh    1    0    1
pp_264_l1       log    factor   6.3857880E-03  0.00001            500          l1_kh    1    0    1
pp_269_l1       log    factor   2.3264476E-02  0.00001            500          l1_kh    1    0    1
pp_272_l1       log    factor   7.5241982E-03  0.00001            500          l1_kh    1    0    1
pp_273_l1       log    factor   0.1214220      0.00001            500          l1_kh    1    0    1
pp_277_l1       log    factor   3.8391601E-02  0.00001            500          l1_kh    1    0    1
pp_278_l1       log    factor   2.1124074E-02  0.00001            500          l1_kh    1    0    1
pp_282_l1       log    factor   1.2654603E-02  0.00001            500          l1_kh    1    0    1
pp_286_l1       log    factor   1.9568331E-02  0.00001            500          l1_kh    1    0    1
pp_290_l1       log    factor   1.8754187E-02  0.00001            500          l1_kh    1    0    1
pp_291_l1       log    factor   8.6436489E-03  0.00001            500          l1_kh    1    0    1
pp_294_l1       log    factor   1.0340780E-02  0.00001            500          l1_kh    1    0    1
pp_295_l1       log    factor   0.1120272      0.00001            500          l1_kh    1    0    1
pp_296_l1       log    factor   2.5387683E-02  0.00001            500          l1_kh    1    0    1
pp_302_l1       log    factor   0.1385275      0.00001            500          l1_kh    1    0    1
pp_303_l1       log    factor   1.7433889E-02  0.00001            500          l1_kh    1    0    1
pp_306_l1       log    factor   4.2042327E-02  0.00001            500          l1_kh    1    0    1
pp_307_l1       log    factor   4.1351609E-02  0.00001            500          l1_kh    1    0    1
pp_309_l1       log    factor   4.6976513E-03  0.00001            500          l1_kh    1    0    1
pp_313_l1       log    factor   1.6071020E-02  0.00001            500          l1_kh    1    0    1
pp_318_l1       log    factor   6.1599052E-02  0.00001            500          l1_kh    1    0    1
pp_321_l1       log    factor   2.9795275E-02  0.00001            500          l1_kh    1    0    1
pp_323_l1       log    factor   8.6462610E-03  0.00001            500          l1_kh    1    0    1
pp_324_l1       log    factor   2.8761924E-02  0.00001            500          l1_kh    1    0    1
pp_325_l1       log    factor   6.5346951E-03  0.00001            500          l1_kh    1    0    1
pp_330_l1       log    factor   3.1335106E-02  0.00001            500          l1_kh    1    0    1
pp_340_l1       log    factor   2.7162015E-02  0.00001            500          l1_kh    1    0    1
pp_342_l1       log    factor   2.2122361E-02  0.00001            500          l1_kh    1    0    1
pp_344_l1       log    factor   1.9944691E-02  0.00001            500          l1_kh    1    0    1
pp_345_l1       log    factor   2.1369731E-02  0.00001            500          l1_kh    1    0    1
pp_347_l1       log    factor   3.1562193E-02  0.00001            500          l1_kh    1    0    1
pp_348_l1       log    factor   2.9631342E-03  0.00001            500          l1_kh    1    0    1
pp_352_l1       log    factor   0.3066155      0.00001            500          l1_kh    1    0    1
pp_355_l1       log    factor   2.2637419E-03  0.00001            500          l1_kh    1    0    1
pp_358_l1       log    factor   4.7758609E-02  0.00001            500          l1_kh    1    0    1
pp_366_l1       log    factor   0.1119494      0.00001            500          l1_kh    1    0    1
pp_370_l1       log    factor   1.3644751E-03  0.00001            500          l1_kh    1    0    1
pp_372_l1       log    factor   3.1399110E-02  0.00001            500          l1_kh    1    0    1
pp_374_l1       log    factor   3.9503408E-02  0.00001            500          l1_kh    1    0    1
pp_376_l1       log    factor   2.7085832E-02  0.00001            500          l1_kh    1    0    1
pp_377_l1       log    factor   6.3661531E-02  0.00001            500          l1_kh    1    0    1
pp_378_l1       log    factor   2.8793418E-02  0.00001            500          l1_kh    1    0    1
pp_379_l1       log    factor   3.4927685E-03  0.00001            500          l1_kh    1    0    1
pp_380_l1       log    factor   1.1807785E-03  0.00001            500          l1_kh    1    0    1
pp_381_l1       log    factor   3.3776203E-02  0.00001            500          l1_kh    1    0    1
pp_382_l1       log    factor   2.1517344E-02  0.00001            500          l1_kh    1    0    1
pp_383_l1       log    factor   3.0367762E-02  0.00001            500          l1_kh    1    0    1
pp_384_l1       log    factor   4.7201201E-02  0.00001            500          l1_kh    1    0    1
pp_387_l1       log    factor   3.1209726E-02  0.00001            500          l1_kh    1    0    1
pp_388_l1       log    factor   4.3535992E-02  0.00001            500          l1_kh    1    0    1
pp_389_l1       log    factor   3.3521594E-02  0.00001            500          l1_kh    1    0    1
pp_390_l1       log    factor   2.4479261E-02  0.00001            500          l1_kh    1    0    1
pp_392_l1       log    factor   1.6479542E-02  0.00001            500          l1_kh    1    0    1
pp_394_l1       log    factor   5.2154748E-04  0.00001            500          l1_kh    1    0    1
pp_396_l1       log    factor   3.3561951E-02  0.00001            500          l1_kh    1    0    1
pp_397_l1       log    factor   1.8853037E-02  0.00001            500          l1_kh    1    0    1
pp_398_l1       log    factor   5.5074059E-02  0.00001            500          l1_kh    1    0    1
pp_399_l1       log    factor   8.0749048E-02  0.00001            500          l1_kh    1    0    1
pp_401_l1       log    factor   3.1206276E-02  0.00001            500          l1_kh    1    0    1
pp_402_l1       log    factor   1.7928959E-02  0.00001            500          l1_kh    1    0    1
pp_403_l1       log    factor   0.1111879      0.00001            500          l1_kh    1    0    1
pp_404_l1       log    factor    1.963994      0.00001            500          l1_kh    1    0    1
pp_406_l1       log    factor   3.0901225E-02  0.00001            500          l1_kh    1    0    1
pp_407_l1       log    factor   0.1682735      0.00001            500          l1_kh    1    0    1
pp_409_l1       log    factor   2.5663800E-02  0.00001            500          l1_kh    1    0    1
pp_410_l1       log    factor   2.9743477E-02  0.00001            500          l1_kh    1    0    1
pp_411_l1       log    factor   9.1710837E-03  0.00001            500          l1_kh    1    0    1
pp_412_l1       log    factor   3.0110161E-02  0.00001            500          l1_kh    1    0    1
pp_417_l1       log    factor   2.1879617E-02  0.00001            500          l1_kh    1    0    1
pp_419_l1       log    factor   1.1126681E-02  0.00001            500          l1_kh    1    0    1
pp_420_l1       log    factor   4.6208320E-02  0.00001            500          l1_kh    1    0    1
pp_421_l1       log    factor   3.5980470E-02  0.00001            500          l1_kh    1    0    1
pp_422_l1       log    factor   2.6220804E-02  0.00001            500          l1_kh    1    0    1
pp_423_l1       log    factor   1.8433496E-02  0.00001            500          l1_kh    1    0    1
pp_424_l1       log    factor   2.0408557E-02  0.00001            500          l1_kh    1    0    1
pp_425_l1       log    factor   2.1199432E-02  0.00001            500          l1_kh    1    0    1
pp_426_l1       log    factor   0.2037640      0.00001            500          l1_kh    1    0    1
pp_428_l1       log    factor   2.2143822E-02  0.00001            500          l1_kh    1    0    1
pp_429_l1       log    factor   5.5120399E-02  0.00001            500          l1_kh    1    0    1
pp_430_l1       log    factor   3.2772130E-02  0.00001            500          l1_kh    1    0    1
pp_432_l1       log    factor   5.6040277E-02  0.00001            500          l1_kh    1    0    1
pp_433_l1       log    factor   6.3236043E-02  0.00001            500          l1_kh    1    0    1
pp_434_l1       log    factor    1.977300      0.00001            500          l1_kh    1    0    1
pp_435_l1       log    factor   9.3921972E-02  0.00001            500          l1_kh    1    0    1
pp_436_l1       log    factor   1.4938810E-02  0.00001            500          l1_kh    1    0    1
pp_438_l1       log    factor   1.2383275E-02  0.00001            500          l1_kh    1    0    1
pp_442_l1       log    factor   2.6794138E-02  0.00001            500          l1_kh    1    0    1
pp_444_l1       log    factor   2.2468036E-02  0.00001            500          l1_kh    1    0    1
pp_445_l1       log    factor   1.9221889E-02  0.00001            500          l1_kh    1    0    1
pp_446_l1       log    factor   2.5599966E-02  0.00001            500          l1_kh    1    0    1
pp_447_l1       log    factor   2.9341983E-02  0.00001            500          l1_kh    1    0    1
pp_448_l1       log    factor   1.6929093E-02  0.00001            500          l1_kh    1    0    1
pp_450_l1       log    factor   0.1114460      0.00001            500          l1_kh    1    0    1
pp_455_l1       log    factor   1.4468895E-02  0.00001            500          l1_kh    1    0    1
pp_456_l1       log    factor    177.2770      0.00001            500          l1_kh    1    0    1
pp_458_l1       log    factor   0.1631952      0.00001            500          l1_kh    1    0    1
pp_459_l1       log    factor   1.5822994E-02  0.00001            500          l1_kh    1    0    1
pp_460_l1       log    factor   1.6310810E-02  0.00001            500          l1_kh    1    0    1
pp_461_l1       log    factor   3.1516454E-02  0.00001            500          l1_kh    1    0    1
pp_462_l1       log    factor   6.7074318E-02  0.00001            500          l1_kh    1    0    1
pp_463_l1       log    factor    1.545156      0.00001            500          l1_kh    1    0    1
pp_464_l1       log    factor   8.1911792E-03  0.00001            500          l1_kh    1    0    1
pp_466_l1       log    factor   1.6691644E-02  0.00001            500          l1_kh    1    0    1
pp_468_l1       log    factor   3.8066385E-02  0.00001            500          l1_kh    1    0    1
pp_471_l1       log    factor   6.5591426E-02  0.00001            500          l1_kh    1    0    1
pp_472_l1       log    factor   0.4332902      0.00001            500          l1_kh    1    0    1
pp_475_l1       log    factor   1.8606353E-02  0.00001            500          l1_kh    1    0    1
pp_483_l1       log    factor   3.5391839E-02  0.00001            500          l1_kh    1    0    1
pp_484_l1       log    factor   0.4427618      0.00001            500          l1_kh    1    0    1
pp_485_l1       log    factor    4.836990      0.00001            500          l1_kh    1    0    1
pp_486_l1       log    factor    1.137956      0.00001            500          l1_kh    1    0    1
pp_488_l1       log    factor   7.7191541E-02  0.00001            500          l1_kh    1    0    1
pp_490_l1       log    factor   3.3044128E-02  0.00001            500          l1_kh    1    0    1
pp_493_l1       log    factor   1.6428444E-02  0.00001            500          l1_kh    1    0    1
pp_495_l1       log    factor    3.359594      0.00001            500          l1_kh    1    0    1
pp_496_l1       log    factor   0.2712897      0.00001            500          l1_kh    1    0    1
pp_497_l1       log    factor   0.1683345      0.00001            500          l1_kh    1    0    1
pp_498_l1       log    factor   1.9195937E-02  0.00001            500          l1_kh    1    0    1
pp_500_l1       log    factor   1.4778698E-02  0.00001            500          l1_kh    1    0    1
pp_502_l1       log    factor   1.3071345E-02  0.00001            500          l1_kh    1    0    1
pp_504_l1       log    factor   2.4875483E-02  0.00001            500          l1_kh    1    0    1
pp_506_l1       log    factor   1.5861682E-02  0.00001            500          l1_kh    1    0    1
pp_510_l1       log    factor   8.8103316E-03  0.00001            500          l1_kh    1    0    1
pp_511_l1       log    factor    4.506861      0.00001            500          l1_kh    1    0    1
pp_512_l1       log    factor   1.6272764E-02  0.00001            500          l1_kh    1    0    1
pp_513_l1       log    factor   2.0713516E-03  0.00001            500          l1_kh    1    0    1
pp_515_l1       log    factor   2.0476951E-02  0.00001            500          l1_kh    1    0    1
pp_517_l1       log    factor   2.3449748E-02  0.00001            500          l1_kh    1    0    1
pp_518_l1       log    factor   2.4467244E-02  0.00001            500          l1_kh    1    0    1
pp_519_l1       log    factor   8.4770772E-03  0.00001            500          l1_kh    1    0    1
pp_521_l1       log    factor   0.1438906      0.00001            500          l1_kh    1    0    1
pp_522_l1       log    factor   2.8443943E-02  0.00001            500          l1_kh    1    0    1
pp_523_l1       log    factor   1.0070776E-02  0.00001            500          l1_kh    1    0    1
pp_524_l1       log    factor   4.5525568E-02  0.00001            500          l1_kh    1    0    1
pp_526_l1       log    factor   1.6365228E-02  0.00001            500          l1_kh    1    0    1
pp_529_l1       log    factor   1.1998630E-02  0.00001            500          l1_kh    1    0    1
pp_530_l1       log    factor   2.9358195E-02  0.00001            500          l1_kh    1    0    1
pp_531_l1       log    factor   4.9105190E-03  0.00001            500          l1_kh    1    0    1
pp_538_l1       log    factor   1.3863396E-02  0.00001            500          l1_kh    1    0    1
pp_543_l1       log    factor   1.2724369E-02  0.00001            500          l1_kh    1    0    1
pp_550_l1       log    factor   2.2548927E-02  0.00001            500          l1_kh    1    0    1
pp_551_l1       log    factor   2.6615093E-02  0.00001            500          l1_kh    1    0    1
pp_552_l1       log    factor   1.8428742E-02  0.00001            500          l1_kh    1    0    1
pp_554_l1       log    factor   2.9277045E-02  0.00001            500          l1_kh    1    0    1
pp_555_l1       log    factor   9.1965733E-03  0.00001            500          l1_kh    1    0    1
pp_556_l1       log    factor   1.8618506E-02  0.00001            500          l1_kh    1    0    1
pp_557_l1       log    factor   2.0981955E-02  0.00001            500          l1_kh    1    0    1
pp_558_l1       log    factor   3.4575618E-02  0.00001            500          l1_kh    1    0    1
pp_565_l1       log    factor   5.3665995E-02  0.00001            500          l1_kh    1    0    1
pp_566_l1       log    factor   0.3424397      0.00001            500          l1_kh    1    0    1
pp_568_l1       log    factor   8.1311564E-03  0.00001            500          l1_kh    1    0    1
pp_572_l1       log    factor   2.0782193E-02  0.00001            500          l1_kh    1    0    1
pp_576_l1       log    factor   2.4208304E-02  0.00001            500          l1_kh    1    0    1