pcf
* control data
restart regularisation
   2833    364     14   6803      14
      6     20 single  point   1   0   0
  5.0  -3.0   0.3  0.03    10
 20.0  20.0 0.001  0
  0.1
   50  0.01     3     3  0.01     3
    1     1     1
* singular value decomposition
         1
      2000     1E-07
         0
* parameter groups
FINF           relative   0.25  0.0   Always_3  2.0 outside_pts
StrmBed        relative   0.05  0.0   Always_3  2.0 outside_pts
L1_Kh          relative   0.25  0.0   Always_3  2.0 outside_pts
L2_Kh_Zn2      relative   0.25  0.0   Always_3  2.0 outside_pts
L2_Kh_Zn3      relative   0.25  0.0   Always_3  2.0 outside_pts
L2_Kh_Zn4      relative   0.25  0.0   Always_3  2.0 outside_pts
L2_Kh_Zn5      relative   0.25  0.0   Always_3  2.0 outside_pts
L2_Kh_Zn6      relative   0.25  0.0   Always_3  2.0 outside_pts
L2_Kh_Zn7      relative   0.25  0.0   Always_3  2.0 outside_pts
L2_Kh_Zn8      relative   0.25  0.0   Always_3  2.0 outside_pts
L2_Kh_Zn9      relative   0.25  0.0   Always_3  2.0 outside_pts
L3_Kh_Zn10     relative   0.25  0.0   Always_3  2.0 outside_pts
SurfK_Alluv    relative   0.25  0.0   Always_3  2.0 outside_pts
SurfK_Mtn      relative   0.25  0.0   Always_3  2.0 outside_pts
* parameter data
finf        fixed   factor   0.3769919      0.10000    1.000    finf        1.0000    0.0000   1
extdp       fixed   factor   0.5837469      0.10000    1.000    finf        1.0000    0.0000   1
pp_3_l1       log   factor    387.4772      0.00001    500.0    l1_kh       1.0000    0.0000   1
pp_4_l1       log   factor    499.9776      0.00001    500.0    l1_kh       1.0000    0.0000   1
pp_9_l1       log   factor    4.882688      0.00001    500.0    l1_kh       1.0000    0.0000   1
pp_10_l1      log   factor    3.994934      0.00001    500.0    l1_kh       1.0000    0.0000   1
pp_12_l1      log   factor    4.810470      0.00001    500.0    l1_kh       1.0000    0.0000   1
pp_16_l1      log   factor    5.002979      0.00001    500.0    l1_kh       1.0000    0.0000   1
pp_17_l1      log   factor    5.006551      0.00001    500.0    l1_kh       1.0000    0.0000   1
pp_18_l1      log   factor    4.610244      0.00001    500.0    l1_kh       1.0000    0.0000   1
pp_23_l1      log   factor    6.529774      0.00001    500.0    l1_kh       1.0000    0.0000   1
pp_24_l1      log   factor    4.780032      0.00001    500.0    l1_kh       1.0000    0.0000   1
pp_26_l1      log   factor    5.008758      0.00001    500.0    l1_kh       1.0000    0.0000   1
pp_27_l1      log   factor    5.106448      0.00001    500.0    l1_kh       1.0000    0.0000   1
pp_29_l1      log   factor    4.854255      0.00001    500.0    l1_kh       1.0000    0.0000   1
pp_30_l1      log   factor    5.000000      0.00001    500.0    l1_kh       1.0000    0.0000   1
pp_34_l1      log   factor    4.660016      0.00001    500.0    l1_kh       1.0000    0.0000   1
pp_35_l1      log   factor    5.494979      0.00001    500.0    l1_kh       1.0000    0.0000   1
pp_36_l1      log   factor    6.024126      0.00001    500.0    l1_kh       1.0000    0.0000   1
pp_39_l1      log   factor    59.21832      0.00001    500.0    l1_kh       1.0000    0.0000   1
pp_41_l1      log   factor    5.362513      0.00001    500.0    l1_kh       1.0000    0.0000   1
pp_42_l1      log   factor    9.613361      0.00001    500.0    l1_kh       1.0000    0.0000   1
pp_45_l1      log   factor    7.202112      0.00001    500.0    l1_kh       1.0000    0.0000   1
pp_47_l1      log   factor    23.28871      0.00001    500.0    l1_kh       1.0000    0.0000   1
pp_50_l1      log   factor    482.3409      0.00001    500.0    l1_kh       1.0000    0.0000   1
pp_51_l1      log   factor    5.410524      0.00001    500.0    l1_kh       1.0000    0.0000   1
pp_54_l1      log   factor    5.242155      0.00001    500.0    l1_kh       1.0000    0.0000   1
pp_56_l1      log   factor    499.8465      0.00001    500.0    l1_kh       1.0000    0.0000   1
pp_58_l1      log   factor    24.20664      0.00001    500.0    l1_kh       1.0000    0.0000   1
pp_61_l1      log   factor    4.967424      0.00001    500.0    l1_kh       1.0000    0.0000   1
pp_63_l1      log   factor    94.45400      0.00001    500.0    l1_kh       1.0000    0.0000   1
pp_68_l1      log   factor    5.240910      0.00001    500.0    l1_kh       1.0000    0.0000   1
pp_71_l1      log   factor    5.255898      0.00001    500.0    l1_kh       1.0000    0.0000   1
pp_77_l1      log   factor    5.228716      0.00001    500.0    l1_kh       1.0000    0.0000   1
pp_78_l1      log   factor    5.031411      0.00001    500.0    l1_kh       1.0000    0.0000   1
pp_82_l1      log   factor    5.029494      0.00001    500.0    l1_kh       1.0000    0.0000   1
pp_88_l1      log   factor    4.965346      0.00001    500.0    l1_kh       1.0000    0.0000   1
pp_90_l1      log   factor    4.998813      0.00001    500.0    l1_kh       1.0000    0.0000   1
pp_91_l1      log   factor    5.007501      0.00001    500.0    l1_kh       1.0000    0.0000   1
pp_93_l1      log   factor    5.000489      0.00001    500.0    l1_kh       1.0000    0.0000   1
pp_94_l1      log   factor    6.953248      0.00001    500.0    l1_kh       1.0000    0.0000   1
pp_95_l1      log   factor    8.472625      0.00001    500.0    l1_kh       1.0000    0.0000   1
pp_96_l1      log   factor    4.976275      0.00001    500.0    l1_kh       1.0000    0.0000   1
pp_98_l1      log   factor    4.936082      0.00001    500.0    l1_kh       1.0000    0.0000   1
pp_99_l1      log   factor    4.966494      0.00001    500.0    l1_kh       1.0000    0.0000   1
pp_101_l1     log   factor    4.985244      0.00001    500.0    l1_kh       1.0000    0.0000   1
pp_103_l1     log   factor    5.017919      0.00001    500.0    l1_kh       1.0000    0.0000   1
pp_105_l1     log   factor    4.985017      0.00001    500.0    l1_kh       1.0000    0.0000   1
pp_107_l1     log   factor    4.948802      0.00001    500.0    l1_kh       1.0000    0.0000   1
pp_108_l1     log   factor    5.041788      0.00001    500.0    l1_kh       1.0000    0.0000   1
pp_110_l1     log   factor    4.968890      0.00001    500.0    l1_kh       1.0000    0.0000   1
pp_114_l1     log   factor    4.960415      0.00001    500.0    l1_kh       1.0000    0.0000   1
pp_117_l1     log   factor    5.035313      0.00001    500.0    l1_kh       1.0000    0.0000   1
pp_119_l1     log   factor    5.045896      0.00001    500.0    l1_kh       1.0000    0.0000   1
pp_122_l1     log   factor    6.075740      0.00001    500.0    l1_kh       1.0000    0.0000   1
pp_125_l1     log   factor    6.699053      0.00001    500.0    l1_kh       1.0000    0.0000   1
pp_126_l1     log   factor    4.990242      0.00001    500.0    l1_kh       1.0000    0.0000   1
pp_127_l1     log   factor    4.937413      0.00001    500.0    l1_kh       1.0000    0.0000   1
pp_128_l1     log   factor    4.998049      0.00001    500.0    l1_kh       1.0000    0.0000   1
pp_129_l1     log   factor    5.011727      0.00001    500.0    l1_kh       1.0000    0.0000   1
pp_135_l1     log   factor    5.038300      0.00001    500.0    l1_kh       1.0000    0.0000   1
pp_142_l1     log   factor    5.001953      0.00001    500.0    l1_kh       1.0000    0.0000   1
pp_145_l1     log   factor    5.062825      0.00001    500.0    l1_kh       1.0000    0.0000   1
pp_148_l1     log   factor    4.955260      0.00001    500.0    l1_kh       1.0000    0.0000   1
pp_152_l1     log   factor    4.479797      0.00001    500.0    l1_kh       1.0000    0.0000   1
pp_153_l1     log   factor    4.995797      0.00001    500.0    l1_kh       1.0000    0.0000   1
pp_155_l1     log   factor    4.934345      0.00001    500.0    l1_kh       1.0000    0.0000   1
pp_159_l1     log   factor    6.317996      0.00001    500.0    l1_kh       1.0000    0.0000   1
pp_160_l1     log   factor    5.021869      0.00001    500.0    l1_kh       1.0000    0.0000   1
pp_164_l1     log   factor    5.856541      0.00001    500.0    l1_kh       1.0000    0.0000   1
pp_166_l1     log   factor    5.039771      0.00001    500.0    l1_kh       1.0000    0.0000   1
pp_167_l1     log   factor    4.778740      0.00001    500.0    l1_kh       1.0000    0.0000   1
pp_168_l1     log   factor    5.245020      0.00001    500.0    l1_kh       1.0000    0.0000   1
pp_170_l1     log   factor    4.986017      0.00001    500.0    l1_kh       1.0000    0.0000   1
pp_174_l1     log   factor    4.989714      0.00001    500.0    l1_kh       1.0000    0.0000   1
pp_179_l1     log   factor    5.008271      0.00001    500.0    l1_kh       1.0000    0.0000   1
pp_182_l1     log   factor    4.994462      0.00001    500.0    l1_kh       1.0000    0.0000   1
pp_187_l1     log   factor    5.037380      0.00001    500.0    l1_kh       1.0000    0.0000   1
pp_189_l1     log   factor    4.979465      0.00001    500.0    l1_kh       1.0000    0.0000   1
pp_190_l1     log   factor    5.030796      0.00001    500.0    l1_kh       1.0000    0.0000   1
pp_191_l1     log   factor    5.015626      0.00001    500.0    l1_kh       1.0000    0.0000   1
pp_193_l1     log   factor    5.015090      0.00001    500.0    l1_kh       1.0000    0.0000   1
pp_198_l1     log   factor    5.020419      0.00001    500.0    l1_kh       1.0000    0.0000   1
pp_200_l1     log   factor    4.946444      0.00001    500.0    l1_kh       1.0000    0.0000   1
pp_201_l1     log   factor    3.528793      0.00001    500.0    l1_kh       1.0000    0.0000   1
pp_202_l1     log   factor    5.055716      0.00001    500.0    l1_kh       1.0000    0.0000   1
pp_205_l1     log   factor    4.413673      0.00001    500.0    l1_kh       1.0000    0.0000   1
pp_206_l1     log   factor    3.979958      0.00001    500.0    l1_kh       1.0000    0.0000   1
pp_207_l1     log   factor    8.034750      0.00001    500.0    l1_kh       1.0000    0.0000   1
pp_208_l1     log   factor    4.723295      0.00001    500.0    l1_kh       1.0000    0.0000   1
pp_209_l1     log   factor    5.791177      0.00001    500.0    l1_kh       1.0000    0.0000   1
pp_210_l1     log   factor    5.587556      0.00001    500.0    l1_kh       1.0000    0.0000   1
pp_212_l1     log   factor    7.932838      0.00001    500.0    l1_kh       1.0000    0.0000   1
pp_214_l1     log   factor    2.043987      0.00001    500.0    l1_kh       1.0000    0.0000   1
pp_215_l1     log   factor    2.646934      0.00001    500.0    l1_kh       1.0000    0.0000   1
pp_216_l1     log   factor    12.64854      0.00001    500.0    l1_kh       1.0000    0.0000   1
pp_217_l1     log   factor    9.981559      0.00001    500.0    l1_kh       1.0000    0.0000   1
pp_218_l1     log   factor    2.760017      0.00001    500.0    l1_kh       1.0000    0.0000   1
pp_219_l1     log   factor    9.544857      0.00001    500.0    l1_kh       1.0000    0.0000   1
pp_222_l1     log   factor    5.038493      0.00001    500.0    l1_kh       1.0000    0.0000   1
pp_224_l1     log   factor    5.298417      0.00001    500.0    l1_kh       1.0000    0.0000   1
pp_225_l1     log   factor    2.871762      0.00001    500.0    l1_kh       1.0000    0.0000   1
pp_226_l1     log   factor    5.684445      0.00001    500.0    l1_kh       1.0000    0.0000   1
pp_227_l1     log   factor    5.009936      0.00001    500.0    l1_kh       1.0000    0.0000   1
pp_229_l1     log   factor    5.063746      0.00001    500.0    l1_kh       1.0000    0.0000   1
pp_233_l1     log   factor    5.737335      0.00001    500.0    l1_kh       1.0000    0.0000   1
pp_235_l1     log   factor    4.421496      0.00001    500.0    l1_kh       1.0000    0.0000   1
pp_236_l1     log   factor    5.091275      0.00001    500.0    l1_kh       1.0000    0.0000   1
pp_237_l1     log   factor    5.382779      0.00001    500.0    l1_kh       1.0000    0.0000   1
pp_241_l1     log   factor    4.414036      0.00001    500.0    l1_kh       1.0000    0.0000   1
pp_242_l1     log   factor    20.20714      0.00001    500.0    l1_kh       1.0000    0.0000   1
pp_243_l1     log   factor    5.096542      0.00001    500.0    l1_kh       1.0000    0.0000   1
pp_245_l1     log   factor    4.960035      0.00001    500.0    l1_kh       1.0000    0.0000   1
pp_246_l1     log   factor    5.013036      0.00001    500.0    l1_kh       1.0000    0.0000   1
pp_247_l1     log   factor    4.804743      0.00001    500.0    l1_kh       1.0000    0.0000   1
pp_251_l1     log   factor    4.992332      0.00001    500.0    l1_kh       1.0000    0.0000   1
pp_252_l1     log   factor    4.994757      0.00001    500.0    l1_kh       1.0000    0.0000   1
pp_253_l1     log   factor    4.990283      0.00001    500.0    l1_kh       1.0000    0.0000   1
pp_254_l1     log   factor    5.026938      0.00001    500.0    l1_kh       1.0000    0.0000   1
pp_255_l1     log   factor    5.041611      0.00001    500.0    l1_kh       1.0000    0.0000   1
pp_257_l1     log   factor    4.994974      0.00001    500.0    l1_kh       1.0000    0.0000   1
pp_258_l1     log   factor    5.044223      0.00001    500.0    l1_kh       1.0000    0.0000   1
pp_259_l1     log   factor    5.000051      0.00001    500.0    l1_kh       1.0000    0.0000   1
pp_260_l1     log   factor    4.948785      0.00001    500.0    l1_kh       1.0000    0.0000   1
pp_264_l1     log   factor    4.978302      0.00001    500.0    l1_kh       1.0000    0.0000   1
pp_269_l1     log   factor    5.004455      0.00001    500.0    l1_kh       1.0000    0.0000   1
pp_272_l1     log   factor    5.083634      0.00001    500.0    l1_kh       1.0000    0.0000   1
pp_273_l1     log   factor    4.950998      0.00001    500.0    l1_kh       1.0000    0.0000   1
pp_277_l1     log   factor    5.026437      0.00001    500.0    l1_kh       1.0000    0.0000   1
pp_278_l1     log   factor    4.999081      0.00001    500.0    l1_kh       1.0000    0.0000   1
pp_282_l1     log   factor    6.229191      0.00001    500.0    l1_kh       1.0000    0.0000   1
pp_286_l1     log   factor    4.972424      0.00001    500.0    l1_kh       1.0000    0.0000   1
pp_290_l1     log   factor    5.038071      0.00001    500.0    l1_kh       1.0000    0.0000   1
pp_291_l1     log   factor    4.349260      0.00001    500.0    l1_kh       1.0000    0.0000   1
pp_294_l1     log   factor    5.006408      0.00001    500.0    l1_kh       1.0000    0.0000   1
pp_295_l1     log   factor    5.002877      0.00001    500.0    l1_kh       1.0000    0.0000   1
pp_296_l1     log   factor    5.011966      0.00001    500.0    l1_kh       1.0000    0.0000   1
pp_302_l1     log   factor    5.002894      0.00001    500.0    l1_kh       1.0000    0.0000   1
pp_303_l1     log   factor    5.014255      0.00001    500.0    l1_kh       1.0000    0.0000   1
pp_306_l1     log   factor    5.011444      0.00001    500.0    l1_kh       1.0000    0.0000   1
pp_307_l1     log   factor    4.986866      0.00001    500.0    l1_kh       1.0000    0.0000   1
pp_309_l1     log   factor    5.134695      0.00001    500.0    l1_kh       1.0000    0.0000   1
pp_313_l1     log   factor    5.002182      0.00001    500.0    l1_kh       1.0000    0.0000   1
pp_318_l1     log   factor    4.995147      0.00001    500.0    l1_kh       1.0000    0.0000   1
pp_321_l1     log   factor    4.847053      0.00001    500.0    l1_kh       1.0000    0.0000   1
pp_323_l1     log   factor    4.933719      0.00001    500.0    l1_kh       1.0000    0.0000   1
pp_324_l1     log   factor    5.010832      0.00001    500.0    l1_kh       1.0000    0.0000   1
pp_325_l1     log   factor    4.979087      0.00001    500.0    l1_kh       1.0000    0.0000   1
pp_330_l1     log   factor    4.785462      0.00001    500.0    l1_kh       1.0000    0.0000   1
pp_340_l1     log   factor    4.893929      0.00001    500.0    l1_kh       1.0000    0.0000   1
pp_342_l1     log   factor    5.061003      0.00001    500.0    l1_kh       1.0000    0.0000   1
pp_344_l1     log   factor    5.000266      0.00001    500.0    l1_kh       1.0000    0.0000   1
pp_345_l1     log   factor    5.001674      0.00001    500.0    l1_kh       1.0000    0.0000   1
pp_347_l1     log   factor    4.975548      0.00001    500.0    l1_kh       1.0000    0.0000   1
pp_348_l1     log   factor    5.004165      0.00001    500.0    l1_kh       1.0000    0.0000   1
pp_352_l1     log   factor    4.996911      0.00001    500.0    l1_kh       1.0000    0.0000   1
pp_355_l1     log   factor    5.015275      0.00001    500.0    l1_kh       1.0000    0.0000   1
pp_358_l1     log   factor    5.002580      0.00001    500.0    l1_kh       1.0000    0.0000   1
pp_366_l1     log   factor    4.998506      0.00001    500.0    l1_kh       1.0000    0.0000   1
pp_370_l1     log   factor    4.929960      0.00001    500.0    l1_kh       1.0000    0.0000   1
pp_372_l1     log   factor    5.036094      0.00001    500.0    l1_kh       1.0000    0.0000   1
pp_374_l1     log   factor    4.991216      0.00001    500.0    l1_kh       1.0000    0.0000   1
pp_376_l1     log   factor    5.025377      0.00001    500.0    l1_kh       1.0000    0.0000   1
pp_377_l1     log   factor    4.924271      0.00001    500.0    l1_kh       1.0000    0.0000   1
pp_378_l1     log   factor    4.962577      0.00001    500.0    l1_kh       1.0000    0.0000   1
pp_379_l1     log   factor    5.016475      0.00001    500.0    l1_kh       1.0000    0.0000   1
pp_380_l1     log   factor    5.045270      0.00001    500.0    l1_kh       1.0000    0.0000   1
pp_381_l1     log   factor    5.034529      0.00001    500.0    l1_kh       1.0000    0.0000   1
pp_382_l1     log   factor    5.027245      0.00001    500.0    l1_kh       1.0000    0.0000   1
pp_383_l1     log   factor    5.002298      0.00001    500.0    l1_kh       1.0000    0.0000   1
pp_384_l1     log   factor    5.007816      0.00001    500.0    l1_kh       1.0000    0.0000   1
pp_387_l1     log   factor    5.012048      0.00001    500.0    l1_kh       1.0000    0.0000   1
pp_388_l1     log   factor    5.523088      0.00001    500.0    l1_kh       1.0000    0.0000   1
pp_389_l1     log   factor    4.439000      0.00001    500.0    l1_kh       1.0000    0.0000   1
pp_390_l1     log   factor    5.001004      0.00001    500.0    l1_kh       1.0000    0.0000   1
pp_392_l1     log   factor    4.944394      0.00001    500.0    l1_kh       1.0000    0.0000   1
pp_394_l1     log   factor    5.006835      0.00001    500.0    l1_kh       1.0000    0.0000   1
pp_396_l1     log   factor    4.918026      0.00001    500.0    l1_kh       1.0000    0.0000   1
pp_397_l1     log   factor    5.010111      0.00001    500.0    l1_kh       1.0000    0.0000   1
pp_398_l1     log   factor    5.264978      0.00001    500.0    l1_kh       1.0000    0.0000   1
pp_399_l1     log   factor    5.004852      0.00001    500.0    l1_kh       1.0000    0.0000   1
pp_401_l1     log   factor    5.661102      0.00001    500.0    l1_kh       1.0000    0.0000   1
pp_402_l1     log   factor    4.992845      0.00001    500.0    l1_kh       1.0000    0.0000   1
pp_403_l1     log   factor    4.395002      0.00001    500.0    l1_kh       1.0000    0.0000   1
pp_404_l1     log   factor    4.526798      0.00001    500.0    l1_kh       1.0000    0.0000   1
pp_406_l1     log   factor    4.213165      0.00001    500.0    l1_kh       1.0000    0.0000   1
pp_407_l1     log   factor    5.071901      0.00001    500.0    l1_kh       1.0000    0.0000   1
pp_409_l1     log   factor    5.006945      0.00001    500.0    l1_kh       1.0000    0.0000   1
pp_410_l1     log   factor    5.000757      0.00001    500.0    l1_kh       1.0000    0.0000   1
pp_411_l1     log   factor    4.981586      0.00001    500.0    l1_kh       1.0000    0.0000   1
pp_412_l1     log   factor    5.078505      0.00001    500.0    l1_kh       1.0000    0.0000   1
pp_417_l1     log   factor    5.026476      0.00001    500.0    l1_kh       1.0000    0.0000   1
pp_419_l1     log   factor    5.021823      0.00001    500.0    l1_kh       1.0000    0.0000   1
pp_420_l1     log   factor    5.060076      0.00001    500.0    l1_kh       1.0000    0.0000   1
pp_421_l1     log   factor    4.977798      0.00001    500.0    l1_kh       1.0000    0.0000   1
pp_422_l1     log   factor    4.991090      0.00001    500.0    l1_kh       1.0000    0.0000   1
pp_423_l1     log   factor    5.131910      0.00001    500.0    l1_kh       1.0000    0.0000   1
pp_424_l1     log   factor    4.981625      0.00001    500.0    l1_kh       1.0000    0.0000   1
pp_425_l1     log   factor    5.011476      0.00001    500.0    l1_kh       1.0000    0.0000   1
pp_426_l1     log   factor    4.954777      0.00001    500.0    l1_kh       1.0000    0.0000   1
pp_428_l1     log   factor    5.011939      0.00001    500.0    l1_kh       1.0000    0.0000   1
pp_429_l1     log   factor    5.059395      0.00001    500.0    l1_kh       1.0000    0.0000   1
pp_430_l1     log   factor    5.056507      0.00001    500.0    l1_kh       1.0000    0.0000   1
pp_432_l1     log   factor    5.003021      0.00001    500.0    l1_kh       1.0000    0.0000   1
pp_433_l1     log   factor    4.998539      0.00001    500.0    l1_kh       1.0000    0.0000   1
pp_434_l1     log   factor    5.027045      0.00001    500.0    l1_kh       1.0000    0.0000   1
pp_435_l1     log   factor    5.038575      0.00001    500.0    l1_kh       1.0000    0.0000   1
pp_436_l1     log   factor    4.965095      0.00001    500.0    l1_kh       1.0000    0.0000   1
pp_438_l1     log   factor    5.011439      0.00001    500.0    l1_kh       1.0000    0.0000   1
pp_442_l1     log   factor    5.010826      0.00001    500.0    l1_kh       1.0000    0.0000   1
pp_444_l1     log   factor    4.980518      0.00001    500.0    l1_kh       1.0000    0.0000   1
pp_445_l1     log   factor    4.975999      0.00001    500.0    l1_kh       1.0000    0.0000   1
pp_446_l1     log   factor    4.997627      0.00001    500.0    l1_kh       1.0000    0.0000   1
pp_447_l1     log   factor    4.950731      0.00001    500.0    l1_kh       1.0000    0.0000   1
pp_448_l1     log   factor    4.967763      0.00001    500.0    l1_kh       1.0000    0.0000   1
pp_450_l1     log   factor    5.003839      0.00001    500.0    l1_kh       1.0000    0.0000   1
pp_455_l1     log   factor    5.006374      0.00001    500.0    l1_kh       1.0000    0.0000   1
pp_456_l1     log   factor    4.923785      0.00001    500.0    l1_kh       1.0000    0.0000   1
pp_458_l1     log   factor    4.963381      0.00001    500.0    l1_kh       1.0000    0.0000   1
pp_459_l1     log   factor    4.977218      0.00001    500.0    l1_kh       1.0000    0.0000   1
pp_460_l1     log   factor    4.972232      0.00001    500.0    l1_kh       1.0000    0.0000   1
pp_461_l1     log   factor    4.619869      0.00001    500.0    l1_kh       1.0000    0.0000   1
pp_462_l1     log   factor    4.999056      0.00001    500.0    l1_kh       1.0000    0.0000   1
pp_463_l1     log   factor    5.405721      0.00001    500.0    l1_kh       1.0000    0.0000   1
pp_464_l1     log   factor    5.012839      0.00001    500.0    l1_kh       1.0000    0.0000   1
pp_466_l1     log   factor    4.996189      0.00001    500.0    l1_kh       1.0000    0.0000   1
pp_468_l1     log   factor    4.991912      0.00001    500.0    l1_kh       1.0000    0.0000   1
pp_471_l1     log   factor    5.061501      0.00001    500.0    l1_kh       1.0000    0.0000   1
pp_472_l1     log   factor    4.978162      0.00001    500.0    l1_kh       1.0000    0.0000   1
pp_475_l1     log   factor    5.000130      0.00001    500.0    l1_kh       1.0000    0.0000   1
pp_483_l1     log   factor    4.995377      0.00001    500.0    l1_kh       1.0000    0.0000   1
pp_484_l1     log   factor    6.290021      0.00001    500.0    l1_kh       1.0000    0.0000   1
pp_485_l1     log   factor    5.110720      0.00001    500.0    l1_kh       1.0000    0.0000   1
pp_486_l1     log   factor    5.022778      0.00001    500.0    l1_kh       1.0000    0.0000   1
pp_488_l1     log   factor    4.999567      0.00001    500.0    l1_kh       1.0000    0.0000   1
pp_490_l1     log   factor    5.016564      0.00001    500.0    l1_kh       1.0000    0.0000   1
pp_493_l1     log   factor    5.009285      0.00001    500.0    l1_kh       1.0000    0.0000   1
pp_495_l1     log   factor    4.980138      0.00001    500.0    l1_kh       1.0000    0.0000   1
pp_496_l1     log   factor    5.034480      0.00001    500.0    l1_kh       1.0000    0.0000   1
pp_497_l1     log   factor    4.405255      0.00001    500.0    l1_kh       1.0000    0.0000   1
pp_498_l1     log   factor    6.212769      0.00001    500.0    l1_kh       1.0000    0.0000   1
pp_500_l1     log   factor    5.155922      0.00001    500.0    l1_kh       1.0000    0.0000   1
pp_502_l1     log   factor    4.929782      0.00001    500.0    l1_kh       1.0000    0.0000   1
pp_504_l1     log   factor    4.980772      0.00001    500.0    l1_kh       1.0000    0.0000   1
pp_506_l1     log   factor    5.955896      0.00001    500.0    l1_kh       1.0000    0.0000   1
pp_510_l1     log   factor    4.959106      0.00001    500.0    l1_kh       1.0000    0.0000   1
pp_511_l1     log   factor    4.995698      0.00001    500.0    l1_kh       1.0000    0.0000   1
pp_512_l1     log   factor    3.456593      0.00001    500.0    l1_kh       1.0000    0.0000   1
pp_513_l1     log   factor    4.977801      0.00001    500.0    l1_kh       1.0000    0.0000   1
pp_515_l1     log   factor    4.971247      0.00001    500.0    l1_kh       1.0000    0.0000   1
pp_517_l1     log   factor    4.985358      0.00001    500.0    l1_kh       1.0000    0.0000   1
pp_518_l1     log   factor    5.076980      0.00001    500.0    l1_kh       1.0000    0.0000   1
pp_519_l1     log   factor    5.129560      0.00001    500.0    l1_kh       1.0000    0.0000   1
pp_521_l1     log   factor    4.920045      0.00001    500.0    l1_kh       1.0000    0.0000   1
pp_522_l1     log   factor    4.770937      0.00001    500.0    l1_kh       1.0000    0.0000   1
pp_523_l1     log   factor    3.356518      0.00001    500.0    l1_kh       1.0000    0.0000   1
pp_524_l1     log   factor    4.986409      0.00001    500.0    l1_kh       1.0000    0.0000   1
pp_526_l1     log   factor    5.153993      0.00001    500.0    l1_kh       1.0000    0.0000   1
pp_529_l1     log   factor    5.007377      0.00001    500.0    l1_kh       1.0000    0.0000   1
pp_530_l1     log   factor    5.007751      0.00001    500.0    l1_kh       1.0000    0.0000   1
pp_531_l1     log   factor    5.092611      0.00001    500.0    l1_kh       1.0000    0.0000   1
pp_538_l1     log   factor    4.994453      0.00001    500.0    l1_kh       1.0000    0.0000   1
pp_543_l1     log   factor    4.979039      0.00001    500.0    l1_kh       1.0000    0.0000   1
pp_550_l1     log   factor    5.004418      0.00001    500.0    l1_kh       1.0000    0.0000   1
pp_551_l1     log   factor    5.042112      0.00001    500.0    l1_kh       1.0000    0.0000   1
pp_552_l1     log   factor    4.994906      0.00001    500.0    l1_kh       1.0000    0.0000   1
pp_554_l1     log   factor    4.472232      0.00001    500.0    l1_kh       1.0000    0.0000   1
pp_555_l1     log   factor    4.498588      0.00001    500.0    l1_kh       1.0000    0.0000   1
pp_556_l1     log   factor    5.091139      0.00001    500.0    l1_kh       1.0000    0.0000   1
pp_557_l1     log   factor    3.734236      0.00001    500.0    l1_kh       1.0000    0.0000   1
pp_558_l1     log   factor    5.044294      0.00001    500.0    l1_kh       1.0000    0.0000   1
pp_565_l1     log   factor    6.593885      0.00001    500.0    l1_kh       1.0000    0.0000   1
pp_566_l1     log   factor    3.596177      0.00001    500.0    l1_kh       1.0000    0.0000   1
pp_568_l1     log   factor    9.070662      0.00001    500.0    l1_kh       1.0000    0.0000   1
pp_572_l1     log   factor    2.348035      0.00001    500.0    l1_kh       1.0000    0.0000   1
pp_576_l1     log   factor    4.218301      0.00001    500.0    l1_kh       1.0000    0.0000   1
pp_577_l1     log   factor    5.103527      0.00001    500.0    l1_kh       1.0000    0.0000   1
pp_578_l1     log   factor    4.858933      0.00001    500.0    l1_kh       1.0000    0.0000   1
pp_579_l1     log   factor    6.136584      0.00001    500.0    l1_kh       1.0000    0.0000   1
pp_580_l1     log   factor    4.985468      0.00001    500.0    l1_kh       1.0000    0.0000   1
pp_581_l1     log   factor    4.972543      0.00001    500.0    l1_kh       1.0000    0.0000   1
pp_582_l1     log   factor    4.976849      0.00001    500.0    l1_kh       1.0000    0.0000   1
pp_584_l1     log   factor    5.062216      0.00001    500.0    l1_kh       1.0000    0.0000   1
pp_587_l1     log   factor    5.014768      0.00001    500.0    l1_kh       1.0000    0.0000   1
pp_588_l1     log   factor    5.011603      0.00001    500.0    l1_kh       1.0000    0.0000   1
pp_590_l1     log   factor    5.018516      0.00001    500.0    l1_kh       1.0000    0.0000   1
pp_591_l1     log   factor    4.981297      0.00001    500.0    l1_kh       1.0000    0.0000   1
pp_592_l1     log   factor    4.926944      0.00001    500.0    l1_kh       1.0000    0.0000   1
pp_593_l1     log   factor    5.051892      0.00001    500.0    l1_kh       1.0000    0.0000   1
pp_594_l1     log   factor    5.289765      0.00001    500.0    l1_kh       1.0000    0.0000   1
pp_595_l1     log   factor    4.112544      0.00001    500.0    l1_kh       1.0000    0.0000   1
pp_597_l1     log   factor    5.622410      0.00001    500.0    l1_kh       1.0000    0.0000   1
pp_598_l1     log   factor    5.034228      0.00001    500.0    l1_kh       1.0000    0.0000   1
pp_599_l1     log   factor    4.401732      0.00001    500.0    l1_kh       1.0000    0.0000   1
pp_600_l1     log   factor    4.995351      0.00001    500.0    l1_kh       1.0000    0.0000   1
pp_604_l1     log   factor    5.012204      0.00001    500.0    l1_kh       1.0000    0.0000   1