pcf
* control data
restart estimation
   2834    364     15      0       4
      6     20 single  point   1   0   0
  5.0  -3.0   0.3  0.03    10
 15.0  15.0 0.001  0
  0.1
    0  0.01     3     3  0.01     3
    1     1     1
* singular value decomposition
         1
       600     1E-07
         0
* parameter groups
FINF           relative   0.050  0.0   Always_3  2.0   outside_pts
pET            relative   0.050  0.0   Always_3  2.0   outside_pts
StrmBed        relative   0.050  0.0   Always_3  2.0   outside_pts
L1_Kh          relative   0.020  0.0   Always_3  2.0   parabolic
L2_Kh_Zn2      relative   0.020  0.0   Always_3  2.0   parabolic
L2_Kh_Zn3      relative   0.020  0.0   Always_3  2.0   parabolic
L2_Kh_Zn4      relative   0.020  0.0   Always_3  2.0   parabolic
L2_Kh_Zn5      relative   0.020  0.0   Always_3  2.0   parabolic
L2_Kh_Zn6      relative   0.020  0.0   Always_3  2.0   parabolic
L2_Kh_Zn7      relative   0.020  0.0   Always_3  2.0   parabolic
L2_Kh_Zn8      relative   0.020  0.0   Always_3  2.0   parabolic
L2_Kh_Zn9      relative   0.020  0.0   Always_3  2.0   parabolic
L3_Kh_Zn10     relative   0.020  0.0   Always_3  2.0   parabolic
SurfK_Alluv    relative   0.050  0.0   Always_3  2.0   outside_pts
SurfK_Mtn      relative   0.050  0.0   Always_3  2.0   outside_pts
* parameter data
finf          log   factor   0.3978911      0.10000    1.000    finf        1.0000    0.0000   1
extdp         log   factor   0.1000000      0.10000    1.000    finf        1.0000    0.0000   1
pET           log   factor   1.0000000      0.80000    1.200     pET        1.0000    0.0000   1
pp_3_l1     fixed   factor    12.63562      0.00001    500.0    l1_kh       1.0000    0.0000   1
pp_4_l1     fixed   factor    5.834222      0.00001    500.0    l1_kh       1.0000    0.0000   1
pp_9_l1     fixed   factor    1.640631      0.00001    500.0    l1_kh       1.0000    0.0000   1
pp_10_l1    fixed   factor    500.0000      0.00001    500.0    l1_kh       1.0000    0.0000   1
pp_12_l1    fixed   factor    5.333574      0.00001    500.0    l1_kh       1.0000    0.0000   1
pp_16_l1    fixed   factor    15.75557      0.00001    500.0    l1_kh       1.0000    0.0000   1
pp_17_l1    fixed   factor    2.042355      0.00001    500.0    l1_kh       1.0000    0.0000   1
pp_18_l1    fixed   factor    6.799062      0.00001    500.0    l1_kh       1.0000    0.0000   1
pp_23_l1    fixed   factor    500.0000      0.00001    500.0    l1_kh       1.0000    0.0000   1
pp_24_l1    fixed   factor    500.0000      0.00001    500.0    l1_kh       1.0000    0.0000   1
pp_26_l1    fixed   factor    9.300445      0.00001    500.0    l1_kh       1.0000    0.0000   1
pp_27_l1    fixed   factor    13.04786      0.00001    500.0    l1_kh       1.0000    0.0000   1
pp_29_l1    fixed   factor    500.0000      0.00001    500.0    l1_kh       1.0000    0.0000   1
pp_30_l1    fixed   factor    7.309498      0.00001    500.0    l1_kh       1.0000    0.0000   1
pp_34_l1    fixed   factor    4.772231      0.00001    500.0    l1_kh       1.0000    0.0000   1
pp_35_l1    fixed   factor    4.397031      0.00001    500.0    l1_kh       1.0000    0.0000   1
pp_36_l1    fixed   factor    500.0000      0.00001    500.0    l1_kh       1.0000    0.0000   1
pp_39_l1    fixed   factor    32.71400      0.00001    500.0    l1_kh       1.0000    0.0000   1
pp_41_l1    fixed   factor    132.9715      0.00001    500.0    l1_kh       1.0000    0.0000   1
pp_42_l1    fixed   factor    500.0000      0.00001    500.0    l1_kh       1.0000    0.0000   1
pp_45_l1    fixed   factor    6.850945      0.00001    500.0    l1_kh       1.0000    0.0000   1
pp_47_l1    fixed   factor    11.23793      0.00001    500.0    l1_kh       1.0000    0.0000   1
pp_50_l1    fixed   factor    16.59076      0.00001    500.0    l1_kh       1.0000    0.0000   1
pp_51_l1    fixed   factor    3.479999      0.00001    500.0    l1_kh       1.0000    0.0000   1
pp_54_l1    fixed   factor    28.60983      0.00001    500.0    l1_kh       1.0000    0.0000   1
pp_56_l1    fixed   factor    3.360615      0.00001    500.0    l1_kh       1.0000    0.0000   1
pp_58_l1    fixed   factor    13.07396      0.00001    500.0    l1_kh       1.0000    0.0000   1
pp_61_l1    fixed   factor    7.814053      0.00001    500.0    l1_kh       1.0000    0.0000   1
pp_63_l1    fixed   factor    10.26467      0.00001    500.0    l1_kh       1.0000    0.0000   1
pp_68_l1    fixed   factor    5.617745      0.00001    500.0    l1_kh       1.0000    0.0000   1
pp_71_l1    fixed   factor    14.83708      0.00001    500.0    l1_kh       1.0000    0.0000   1
pp_77_l1    fixed   factor    3.153098      0.00001    500.0    l1_kh       1.0000    0.0000   1
pp_78_l1    fixed   factor    6.285048      0.00001    500.0    l1_kh       1.0000    0.0000   1
pp_82_l1    fixed   factor    7.234242      0.00001    500.0    l1_kh       1.0000    0.0000   1
pp_88_l1    fixed   factor    5.443293      0.00001    500.0    l1_kh       1.0000    0.0000   1
pp_90_l1    fixed   factor    6.272919      0.00001    500.0    l1_kh       1.0000    0.0000   1
pp_91_l1    fixed   factor    7.543960      0.00001    500.0    l1_kh       1.0000    0.0000   1
pp_93_l1    fixed   factor    6.904573      0.00001    500.0    l1_kh       1.0000    0.0000   1
pp_94_l1    fixed   factor    5.190924      0.00001    500.0    l1_kh       1.0000    0.0000   1
pp_95_l1    fixed   factor    4.927025      0.00001    500.0    l1_kh       1.0000    0.0000   1
pp_96_l1    fixed   factor    18.78088      0.00001    500.0    l1_kh       1.0000    0.0000   1
pp_98_l1    fixed   factor    8.043820      0.00001    500.0    l1_kh       1.0000    0.0000   1
pp_99_l1    fixed   factor    7.367085      0.00001    500.0    l1_kh       1.0000    0.0000   1
pp_101_l1   fixed   factor    12.17106      0.00001    500.0    l1_kh       1.0000    0.0000   1
pp_103_l1   fixed   factor    7.999423      0.00001    500.0    l1_kh       1.0000    0.0000   1
pp_105_l1   fixed   factor    4.231147      0.00001    500.0    l1_kh       1.0000    0.0000   1
pp_107_l1   fixed   factor    7.258052      0.00001    500.0    l1_kh       1.0000    0.0000   1
pp_108_l1   fixed   factor   0.1681212      0.00001    500.0    l1_kh       1.0000    0.0000   1
pp_110_l1   fixed   factor    5.218095      0.00001    500.0    l1_kh       1.0000    0.0000   1
pp_114_l1   fixed   factor    6.572856      0.00001    500.0    l1_kh       1.0000    0.0000   1
pp_117_l1   fixed   factor    4.139005      0.00001    500.0    l1_kh       1.0000    0.0000   1
pp_119_l1   fixed   factor    4.638917      0.00001    500.0    l1_kh       1.0000    0.0000   1
pp_122_l1   fixed   factor    5.587739      0.00001    500.0    l1_kh       1.0000    0.0000   1
pp_125_l1   fixed   factor    2.093202      0.00001    500.0    l1_kh       1.0000    0.0000   1
pp_126_l1   fixed   factor    4.580883      0.00001    500.0    l1_kh       1.0000    0.0000   1
pp_127_l1   fixed   factor    4.865481      0.00001    500.0    l1_kh       1.0000    0.0000   1
pp_128_l1   fixed   factor    3.628658      0.00001    500.0    l1_kh       1.0000    0.0000   1
pp_129_l1   fixed   factor    2.197176      0.00001    500.0    l1_kh       1.0000    0.0000   1
pp_135_l1   fixed   factor    4.455169      0.00001    500.0    l1_kh       1.0000    0.0000   1
pp_142_l1   fixed   factor    3.952964      0.00001    500.0    l1_kh       1.0000    0.0000   1
pp_145_l1   fixed   factor    3.099771      0.00001    500.0    l1_kh       1.0000    0.0000   1
pp_148_l1   fixed   factor    3.650081      0.00001    500.0    l1_kh       1.0000    0.0000   1
pp_152_l1   fixed   factor    4.248353      0.00001    500.0    l1_kh       1.0000    0.0000   1
pp_153_l1   fixed   factor    5.312059      0.00001    500.0    l1_kh       1.0000    0.0000   1
pp_155_l1   fixed   factor    5.359647      0.00001    500.0    l1_kh       1.0000    0.0000   1
pp_159_l1   fixed   factor    4.599589      0.00001    500.0    l1_kh       1.0000    0.0000   1
pp_160_l1   fixed   factor    4.717555      0.00001    500.0    l1_kh       1.0000    0.0000   1
pp_164_l1   fixed   factor    5.216783      0.00001    500.0    l1_kh       1.0000    0.0000   1
pp_166_l1   fixed   factor    5.316639      0.00001    500.0    l1_kh       1.0000    0.0000   1
pp_167_l1   fixed   factor    5.682701      0.00001    500.0    l1_kh       1.0000    0.0000   1
pp_168_l1   fixed   factor    6.543324      0.00001    500.0    l1_kh       1.0000    0.0000   1
pp_170_l1   fixed   factor    6.347615      0.00001    500.0    l1_kh       1.0000    0.0000   1
pp_174_l1   fixed   factor    4.818396      0.00001    500.0    l1_kh       1.0000    0.0000   1
pp_179_l1   fixed   factor    5.261467      0.00001    500.0    l1_kh       1.0000    0.0000   1
pp_182_l1   fixed   factor    7.908907      0.00001    500.0    l1_kh       1.0000    0.0000   1
pp_187_l1   fixed   factor    6.471005      0.00001    500.0    l1_kh       1.0000    0.0000   1
pp_189_l1   fixed   factor    5.583365      0.00001    500.0    l1_kh       1.0000    0.0000   1
pp_190_l1   fixed   factor    4.588715      0.00001    500.0    l1_kh       1.0000    0.0000   1
pp_191_l1   fixed   factor    3.863525      0.00001    500.0    l1_kh       1.0000    0.0000   1
pp_193_l1   fixed   factor    5.458993      0.00001    500.0    l1_kh       1.0000    0.0000   1
pp_198_l1   fixed   factor    10.67951      0.00001    500.0    l1_kh       1.0000    0.0000   1
pp_200_l1   fixed   factor    1.979479      0.00001    500.0    l1_kh       1.0000    0.0000   1
pp_201_l1   fixed   factor    4.830525      0.00001    500.0    l1_kh       1.0000    0.0000   1
pp_202_l1   fixed   factor    4.040052      0.00001    500.0    l1_kh       1.0000    0.0000   1
pp_205_l1   fixed   factor    5.168085      0.00001    500.0    l1_kh       1.0000    0.0000   1
pp_206_l1   fixed   factor    5.383560      0.00001    500.0    l1_kh       1.0000    0.0000   1
pp_207_l1   fixed   factor    4.978155      0.00001    500.0    l1_kh       1.0000    0.0000   1
pp_208_l1   fixed   factor    4.885628      0.00001    500.0    l1_kh       1.0000    0.0000   1
pp_209_l1   fixed   factor    3.694410      0.00001    500.0    l1_kh       1.0000    0.0000   1
pp_210_l1   fixed   factor    5.222623      0.00001    500.0    l1_kh       1.0000    0.0000   1
pp_212_l1   fixed   factor    6.285100      0.00001    500.0    l1_kh       1.0000    0.0000   1
pp_214_l1   fixed   factor    5.057964      0.00001    500.0    l1_kh       1.0000    0.0000   1
pp_215_l1   fixed   factor    5.238829      0.00001    500.0    l1_kh       1.0000    0.0000   1
pp_216_l1   fixed   factor    8.297629      0.00001    500.0    l1_kh       1.0000    0.0000   1
pp_217_l1   fixed   factor    4.790414      0.00001    500.0    l1_kh       1.0000    0.0000   1
pp_218_l1   fixed   factor    5.042939      0.00001    500.0    l1_kh       1.0000    0.0000   1
pp_219_l1   fixed   factor    5.575140      0.00001    500.0    l1_kh       1.0000    0.0000   1
pp_222_l1   fixed   factor    4.149719      0.00001    500.0    l1_kh       1.0000    0.0000   1
pp_224_l1   fixed   factor    6.053074      0.00001    500.0    l1_kh       1.0000    0.0000   1
pp_225_l1   fixed   factor    5.202651      0.00001    500.0    l1_kh       1.0000    0.0000   1
pp_226_l1   fixed   factor    4.749467      0.00001    500.0    l1_kh       1.0000    0.0000   1
pp_227_l1   fixed   factor    6.004847      0.00001    500.0    l1_kh       1.0000    0.0000   1
pp_229_l1   fixed   factor    4.303985      0.00001    500.0    l1_kh       1.0000    0.0000   1
pp_233_l1   fixed   factor    5.659387      0.00001    500.0    l1_kh       1.0000    0.0000   1
pp_235_l1   fixed   factor    6.237573      0.00001    500.0    l1_kh       1.0000    0.0000   1
pp_236_l1   fixed   factor    7.986999      0.00001    500.0    l1_kh       1.0000    0.0000   1
pp_237_l1   fixed   factor    43.75273      0.00001    500.0    l1_kh       1.0000    0.0000   1
pp_241_l1   fixed   factor    7.971790      0.00001    500.0    l1_kh       1.0000    0.0000   1
pp_242_l1   fixed   factor    1.488758      0.00001    500.0    l1_kh       1.0000    0.0000   1
pp_243_l1   fixed   factor    6.781706      0.00001    500.0    l1_kh       1.0000    0.0000   1
pp_245_l1   fixed   factor    3.850046      0.00001    500.0    l1_kh       1.0000    0.0000   1
pp_246_l1   fixed   factor    2.343427      0.00001    500.0    l1_kh       1.0000    0.0000   1
pp_247_l1   fixed   factor   0.6603695      0.00001    500.0    l1_kh       1.0000    0.0000   1
pp_251_l1   fixed   factor    6.843811      0.00001    500.0    l1_kh       1.0000    0.0000   1
pp_252_l1   fixed   factor    4.188617      0.00001    500.0    l1_kh       1.0000    0.0000   1
pp_253_l1   fixed   factor    10.71323      0.00001    500.0    l1_kh       1.0000    0.0000   1
pp_254_l1   fixed   factor    12.79011      0.00001    500.0    l1_kh       1.0000    0.0000   1
pp_255_l1   fixed   factor    5.449273      0.00001    500.0    l1_kh       1.0000    0.0000   1
pp_257_l1   fixed   factor    9.668491      0.00001    500.0    l1_kh       1.0000    0.0000   1
pp_258_l1   fixed   factor    8.454845      0.00001    500.0    l1_kh       1.0000    0.0000   1
pp_259_l1   fixed   factor    25.49261      0.00001    500.0    l1_kh       1.0000    0.0000   1
pp_260_l1   fixed   factor    10.73462      0.00001    500.0    l1_kh       1.0000    0.0000   1
pp_264_l1   fixed   factor    1.590051      0.00001    500.0    l1_kh       1.0000    0.0000   1
pp_269_l1   fixed   factor    5.749458      0.00001    500.0    l1_kh       1.0000    0.0000   1
pp_272_l1   fixed   factor    1.991087      0.00001    500.0    l1_kh       1.0000    0.0000   1
pp_273_l1   fixed   factor    26.78902      0.00001    500.0    l1_kh       1.0000    0.0000   1
pp_277_l1   fixed   factor    6.606275      0.00001    500.0    l1_kh       1.0000    0.0000   1
pp_278_l1   fixed   factor    4.918593      0.00001    500.0    l1_kh       1.0000    0.0000   1
pp_282_l1   fixed   factor    3.206191      0.00001    500.0    l1_kh       1.0000    0.0000   1
pp_286_l1   fixed   factor    3.245800      0.00001    500.0    l1_kh       1.0000    0.0000   1
pp_290_l1   fixed   factor    4.617878      0.00001    500.0    l1_kh       1.0000    0.0000   1
pp_291_l1   fixed   factor    2.169013      0.00001    500.0    l1_kh       1.0000    0.0000   1
pp_294_l1   fixed   factor    2.459916      0.00001    500.0    l1_kh       1.0000    0.0000   1
pp_295_l1   fixed   factor    21.61742      0.00001    500.0    l1_kh       1.0000    0.0000   1
pp_296_l1   fixed   factor    6.280889      0.00001    500.0    l1_kh       1.0000    0.0000   1
pp_302_l1   fixed   factor    30.95589      0.00001    500.0    l1_kh       1.0000    0.0000   1
pp_303_l1   fixed   factor    4.247275      0.00001    500.0    l1_kh       1.0000    0.0000   1
pp_306_l1   fixed   factor    10.57835      0.00001    500.0    l1_kh       1.0000    0.0000   1
pp_307_l1   fixed   factor    10.29737      0.00001    500.0    l1_kh       1.0000    0.0000   1
pp_309_l1   fixed   factor    1.169732      0.00001    500.0    l1_kh       1.0000    0.0000   1
pp_313_l1   fixed   factor    4.058320      0.00001    500.0    l1_kh       1.0000    0.0000   1
pp_318_l1   fixed   factor    15.10248      0.00001    500.0    l1_kh       1.0000    0.0000   1
pp_321_l1   fixed   factor    7.870285      0.00001    500.0    l1_kh       1.0000    0.0000   1
pp_323_l1   fixed   factor    2.166826      0.00001    500.0    l1_kh       1.0000    0.0000   1
pp_324_l1   fixed   factor    7.132756      0.00001    500.0    l1_kh       1.0000    0.0000   1
pp_325_l1   fixed   factor    1.594539      0.00001    500.0    l1_kh       1.0000    0.0000   1
pp_330_l1   fixed   factor    7.873999      0.00001    500.0    l1_kh       1.0000    0.0000   1
pp_340_l1   fixed   factor    6.974896      0.00001    500.0    l1_kh       1.0000    0.0000   1
pp_342_l1   fixed   factor    4.649643      0.00001    500.0    l1_kh       1.0000    0.0000   1
pp_344_l1   fixed   factor    5.175888      0.00001    500.0    l1_kh       1.0000    0.0000   1
pp_345_l1   fixed   factor    4.814072      0.00001    500.0    l1_kh       1.0000    0.0000   1
pp_347_l1   fixed   factor    3.040178      0.00001    500.0    l1_kh       1.0000    0.0000   1
pp_348_l1   fixed   factor    4.901387      0.00001    500.0    l1_kh       1.0000    0.0000   1
pp_352_l1   fixed   factor    17.41274      0.00001    500.0    l1_kh       1.0000    0.0000   1
pp_355_l1   fixed   factor   0.5200821      0.00001    500.0    l1_kh       1.0000    0.0000   1
pp_358_l1   fixed   factor    11.97751      0.00001    500.0    l1_kh       1.0000    0.0000   1
pp_366_l1   fixed   factor    27.73150      0.00001    500.0    l1_kh       1.0000    0.0000   1
pp_370_l1   fixed   factor   0.3232514      0.00001    500.0    l1_kh       1.0000    0.0000   1
pp_372_l1   fixed   factor    6.200054      0.00001    500.0    l1_kh       1.0000    0.0000   1
pp_374_l1   fixed   factor    9.216407      0.00001    500.0    l1_kh       1.0000    0.0000   1
pp_376_l1   fixed   factor    8.074938      0.00001    500.0    l1_kh       1.0000    0.0000   1
pp_377_l1   fixed   factor    10.73273      0.00001    500.0    l1_kh       1.0000    0.0000   1
pp_378_l1   fixed   factor    6.672381      0.00001    500.0    l1_kh       1.0000    0.0000   1
pp_379_l1   fixed   factor   0.8538393      0.00001    500.0    l1_kh       1.0000    0.0000   1
pp_380_l1   fixed   factor   0.2591114      0.00001    500.0    l1_kh       1.0000    0.0000   1
pp_381_l1   fixed   factor    7.660938      0.00001    500.0    l1_kh       1.0000    0.0000   1
pp_382_l1   fixed   factor    5.373138      0.00001    500.0    l1_kh       1.0000    0.0000   1
pp_383_l1   fixed   factor    6.045079      0.00001    500.0    l1_kh       1.0000    0.0000   1
pp_384_l1   fixed   factor    11.71636      0.00001    500.0    l1_kh       1.0000    0.0000   1
pp_387_l1   fixed   factor    6.854285      0.00001    500.0    l1_kh       1.0000    0.0000   1
pp_388_l1   fixed   factor    10.98369      0.00001    500.0    l1_kh       1.0000    0.0000   1
pp_389_l1   fixed   factor    8.548898      0.00001    500.0    l1_kh       1.0000    0.0000   1
pp_390_l1   fixed   factor    5.557863      0.00001    500.0    l1_kh       1.0000    0.0000   1
pp_392_l1   fixed   factor    3.885203      0.00001    500.0    l1_kh       1.0000    0.0000   1
pp_394_l1   fixed   factor   0.1571581      0.00001    500.0    l1_kh       1.0000    0.0000   1
pp_396_l1   fixed   factor    8.907490      0.00001    500.0    l1_kh       1.0000    0.0000   1
pp_397_l1   fixed   factor    5.057422      0.00001    500.0    l1_kh       1.0000    0.0000   1
pp_398_l1   fixed   factor    8.682105      0.00001    500.0    l1_kh       1.0000    0.0000   1
pp_399_l1   fixed   factor    18.42197      0.00001    500.0    l1_kh       1.0000    0.0000   1
pp_401_l1   fixed   factor    9.526027      0.00001    500.0    l1_kh       1.0000    0.0000   1
pp_402_l1   fixed   factor    3.562250      0.00001    500.0    l1_kh       1.0000    0.0000   1
pp_403_l1   fixed   factor    24.66926      0.00001    500.0    l1_kh       1.0000    0.0000   1
pp_404_l1   fixed   factor    44.11151      0.00001    500.0    l1_kh       1.0000    0.0000   1
pp_406_l1   fixed   factor    10.73173      0.00001    500.0    l1_kh       1.0000    0.0000   1
pp_407_l1   fixed   factor    46.62146      0.00001    500.0    l1_kh       1.0000    0.0000   1
pp_409_l1   fixed   factor    6.039891      0.00001    500.0    l1_kh       1.0000    0.0000   1
pp_410_l1   fixed   factor    7.655107      0.00001    500.0    l1_kh       1.0000    0.0000   1
pp_411_l1   fixed   factor    3.195882      0.00001    500.0    l1_kh       1.0000    0.0000   1
pp_412_l1   fixed   factor    7.658344      0.00001    500.0    l1_kh       1.0000    0.0000   1
pp_417_l1   fixed   factor    5.065344      0.00001    500.0    l1_kh       1.0000    0.0000   1
pp_419_l1   fixed   factor    2.841390      0.00001    500.0    l1_kh       1.0000    0.0000   1
pp_420_l1   fixed   factor    11.35626      0.00001    500.0    l1_kh       1.0000    0.0000   1
pp_421_l1   fixed   factor    9.264229      0.00001    500.0    l1_kh       1.0000    0.0000   1
pp_422_l1   fixed   factor    6.498777      0.00001    500.0    l1_kh       1.0000    0.0000   1
pp_423_l1   fixed   factor    4.554645      0.00001    500.0    l1_kh       1.0000    0.0000   1
pp_424_l1   fixed   factor    4.503780      0.00001    500.0    l1_kh       1.0000    0.0000   1
pp_425_l1   fixed   factor    7.931787      0.00001    500.0    l1_kh       1.0000    0.0000   1
pp_426_l1   fixed   factor    59.29553      0.00001    500.0    l1_kh       1.0000    0.0000   1
pp_428_l1   fixed   factor    7.271535      0.00001    500.0    l1_kh       1.0000    0.0000   1
pp_429_l1   fixed   factor    13.41438      0.00001    500.0    l1_kh       1.0000    0.0000   1
pp_430_l1   fixed   factor    8.701974      0.00001    500.0    l1_kh       1.0000    0.0000   1
pp_432_l1   fixed   factor    13.74606      0.00001    500.0    l1_kh       1.0000    0.0000   1
pp_433_l1   fixed   factor    14.43389      0.00001    500.0    l1_kh       1.0000    0.0000   1
pp_434_l1   fixed   factor    21.56657      0.00001    500.0    l1_kh       1.0000    0.0000   1
pp_435_l1   fixed   factor    23.89339      0.00001    500.0    l1_kh       1.0000    0.0000   1
pp_436_l1   fixed   factor    3.796924      0.00001    500.0    l1_kh       1.0000    0.0000   1
pp_438_l1   fixed   factor    5.074609      0.00001    500.0    l1_kh       1.0000    0.0000   1
pp_442_l1   fixed   factor    9.373843      0.00001    500.0    l1_kh       1.0000    0.0000   1
pp_444_l1   fixed   factor    6.323080      0.00001    500.0    l1_kh       1.0000    0.0000   1
pp_445_l1   fixed   factor    4.732466      0.00001    500.0    l1_kh       1.0000    0.0000   1
pp_446_l1   fixed   factor    6.468017      0.00001    500.0    l1_kh       1.0000    0.0000   1
pp_447_l1   fixed   factor    6.982328      0.00001    500.0    l1_kh       1.0000    0.0000   1
pp_448_l1   fixed   factor    3.581025      0.00001    500.0    l1_kh       1.0000    0.0000   1
pp_450_l1   fixed   factor    13.48703      0.00001    500.0    l1_kh       1.0000    0.0000   1
pp_455_l1   fixed   factor    3.814625      0.00001    500.0    l1_kh       1.0000    0.0000   1
pp_456_l1   fixed   factor    499.9185      0.00001    500.0    l1_kh       1.0000    0.0000   1
pp_458_l1   fixed   factor    20.53182      0.00001    500.0    l1_kh       1.0000    0.0000   1
pp_459_l1   fixed   factor    14.91466      0.00001    500.0    l1_kh       1.0000    0.0000   1
pp_460_l1   fixed   factor    2.676137      0.00001    500.0    l1_kh       1.0000    0.0000   1
pp_461_l1   fixed   factor    7.807740      0.00001    500.0    l1_kh       1.0000    0.0000   1
pp_462_l1   fixed   factor    9.283383      0.00001    500.0    l1_kh       1.0000    0.0000   1
pp_463_l1   fixed   factor    499.6855      0.00001    500.0    l1_kh       1.0000    0.0000   1
pp_464_l1   fixed   factor    2.028252      0.00001    500.0    l1_kh       1.0000    0.0000   1
pp_466_l1   fixed   factor    4.491954      0.00001    500.0    l1_kh       1.0000    0.0000   1
pp_468_l1   fixed   factor    9.481233      0.00001    500.0    l1_kh       1.0000    0.0000   1
pp_471_l1   fixed   factor    15.77754      0.00001    500.0    l1_kh       1.0000    0.0000   1
pp_472_l1   fixed   factor    104.5449      0.00001    500.0    l1_kh       1.0000    0.0000   1
pp_475_l1   fixed   factor    5.074580      0.00001    500.0    l1_kh       1.0000    0.0000   1
pp_483_l1   fixed   factor    6.449831      0.00001    500.0    l1_kh       1.0000    0.0000   1
pp_484_l1   fixed   factor    5.389608      0.00001    500.0    l1_kh       1.0000    0.0000   1
pp_485_l1   fixed   factor    19.21748      0.00001    500.0    l1_kh       1.0000    0.0000   1
pp_486_l1   fixed   factor    497.4639      0.00001    500.0    l1_kh       1.0000    0.0000   1
pp_488_l1   fixed   factor    19.04513      0.00001    500.0    l1_kh       1.0000    0.0000   1
pp_490_l1   fixed   factor    8.441086      0.00001    500.0    l1_kh       1.0000    0.0000   1
pp_493_l1   fixed   factor    5.986405      0.00001    500.0    l1_kh       1.0000    0.0000   1
pp_495_l1   fixed   factor    23.77673      0.00001    500.0    l1_kh       1.0000    0.0000   1
pp_496_l1   fixed   factor    15.23844      0.00001    500.0    l1_kh       1.0000    0.0000   1
pp_497_l1   fixed   factor    30.57876      0.00001    500.0    l1_kh       1.0000    0.0000   1
pp_498_l1   fixed   factor    4.779994      0.00001    500.0    l1_kh       1.0000    0.0000   1
pp_500_l1   fixed   factor    3.710451      0.00001    500.0    l1_kh       1.0000    0.0000   1
pp_502_l1   fixed   factor    3.263152      0.00001    500.0    l1_kh       1.0000    0.0000   1
pp_504_l1   fixed   factor    6.401985      0.00001    500.0    l1_kh       1.0000    0.0000   1
pp_506_l1   fixed   factor    4.006031      0.00001    500.0    l1_kh       1.0000    0.0000   1
pp_510_l1   fixed   factor    4.893716      0.00001    500.0    l1_kh       1.0000    0.0000   1
pp_511_l1   fixed   factor    5.377563      0.00001    500.0    l1_kh       1.0000    0.0000   1
pp_512_l1   fixed   factor    5.275524      0.00001    500.0    l1_kh       1.0000    0.0000   1
pp_513_l1   fixed   factor    4.721420      0.00001    500.0    l1_kh       1.0000    0.0000   1
pp_515_l1   fixed   factor    5.335854      0.00001    500.0    l1_kh       1.0000    0.0000   1
pp_517_l1   fixed   factor    7.446636      0.00001    500.0    l1_kh       1.0000    0.0000   1
pp_518_l1   fixed   factor    5.694846      0.00001    500.0    l1_kh       1.0000    0.0000   1
pp_519_l1   fixed   factor    4.645609      0.00001    500.0    l1_kh       1.0000    0.0000   1
pp_521_l1   fixed   factor    4.839384      0.00001    500.0    l1_kh       1.0000    0.0000   1
pp_522_l1   fixed   factor    4.815196      0.00001    500.0    l1_kh       1.0000    0.0000   1
pp_523_l1   fixed   factor    4.927534      0.00001    500.0    l1_kh       1.0000    0.0000   1
pp_524_l1   fixed   factor    5.206667      0.00001    500.0    l1_kh       1.0000    0.0000   1
pp_526_l1   fixed   factor    4.902064      0.00001    500.0    l1_kh       1.0000    0.0000   1
pp_529_l1   fixed   factor    5.423299      0.00001    500.0    l1_kh       1.0000    0.0000   1
pp_530_l1   fixed   factor    7.182737      0.00001    500.0    l1_kh       1.0000    0.0000   1
pp_531_l1   fixed   factor    7.368776      0.00001    500.0    l1_kh       1.0000    0.0000   1
pp_538_l1   fixed   factor    4.523921      0.00001    500.0    l1_kh       1.0000    0.0000   1
pp_543_l1   fixed   factor    3.168448      0.00001    500.0    l1_kh       1.0000    0.0000   1
pp_550_l1   fixed   factor    5.467940      0.00001    500.0    l1_kh       1.0000    0.0000   1
pp_551_l1   fixed   factor    6.971199      0.00001    500.0    l1_kh       1.0000    0.0000   1
pp_552_l1   fixed   factor    4.792867      0.00001    500.0    l1_kh       1.0000    0.0000   1
pp_554_l1   fixed   factor    5.012580      0.00001    500.0    l1_kh       1.0000    0.0000   1
pp_555_l1   fixed   factor    4.904677      0.00001    500.0    l1_kh       1.0000    0.0000   1
pp_556_l1   fixed   factor    5.865480      0.00001    500.0    l1_kh       1.0000    0.0000   1
pp_557_l1   fixed   factor    4.887027      0.00001    500.0    l1_kh       1.0000    0.0000   1
pp_558_l1   fixed   factor    10.63948      0.00001    500.0    l1_kh       1.0000    0.0000   1
pp_565_l1   fixed   factor    13.64061      0.00001    500.0    l1_kh       1.0000    0.0000   1
pp_566_l1   fixed   factor    93.01598      0.00001    500.0    l1_kh       1.0000    0.0000   1
pp_568_l1   fixed   factor    5.729864      0.00001    500.0    l1_kh       1.0000    0.0000   1
pp_572_l1   fixed   factor    5.255735      0.00001    500.0    l1_kh       1.0000    0.0000   1
pp_576_l1   fixed   factor    5.636411      0.00001    500.0    l1_kh       1.0000    0.0000   1
pp_577_l1   fixed   factor    5.458387      0.00001    500.0    l1_kh       1.0000    0.0000   1
pp_578_l1   fixed   factor    3.942651      0.00001    500.0    l1_kh       1.0000    0.0000   1
pp_579_l1   fixed   factor    2.229139      0.00001    500.0    l1_kh       1.0000    0.0000   1
pp_580_l1   fixed   factor    4.441239      0.00001    500.0    l1_kh       1.0000    0.0000   1
pp_581_l1   fixed   factor    7.516111      0.00001    500.0    l1_kh       1.0000    0.0000   1
pp_582_l1   fixed   factor    6.689145      0.00001    500.0    l1_kh       1.0000    0.0000   1
pp_584_l1   fixed   factor    28.04334      0.00001    500.0    l1_kh       1.0000    0.0000   1
pp_587_l1   fixed   factor    5.272697      0.00001    500.0    l1_kh       1.0000    0.0000   1
pp_588_l1   fixed   factor    6.297221      0.00001    500.0    l1_kh       1.0000    0.0000   1
pp_590_l1   fixed   factor    2.442822      0.00001    500.0    l1_kh       1.0000    0.0000   1
pp_591_l1   fixed   factor    10.54474      0.00001    500.0    l1_kh       1.0000    0.0000   1
pp_592_l1   fixed   factor    6.434732      0.00001    500.0    l1_kh       1.0000    0.0000   1
pp_593_l1   fixed   factor    9.059706      0.00001    500.0    l1_kh       1.0000    0.0000   1
pp_594_l1   fixed   factor    8.582041      0.00001    500.0    l1_kh       1.0000    0.0000   1
pp_595_l1   fixed   factor    6.598078      0.00001    500.0    l1_kh       1.0000    0.0000   1
pp_597_l1   fixed   factor    4.289348      0.00001    500.0    l1_kh       1.0000    0.0000   1
pp_598_l1   fixed   factor    6.512222      0.00001    500.0    l1_kh       1.0000    0.0000   1
pp_599_l1   fixed   factor    6.614012      0.00001    500.0    l1_kh       1.0000    0.0000   1