pcf
* control data
restart regularisation
   2831    363     13   6803      14
      5     20 single  point   1   0   0
  5.0  -3.0   0.3  0.03    10
  5.0   5.0 0.001  0
  0.1
    0  0.01     3     3  0.01     3
    1     1     1
* singular value decomposition
         1
      2050     1E-07
         0
* parameter groups
StrmBed        relative   0.02  0.0   switch  2.0 parabolic
L1_Kh          relative   0.02  0.0   switch  2.0 parabolic
L2_Kh_Zn2      relative   0.02  0.0   switch  2.0 parabolic
L2_Kh_Zn3      relative   0.02  0.0   switch  2.0 parabolic
L2_Kh_Zn4      relative   0.02  0.0   switch  2.0 parabolic
L2_Kh_Zn5      relative   0.02  0.0   switch  2.0 parabolic
L2_Kh_Zn6      relative   0.02  0.0   switch  2.0 parabolic
L2_Kh_Zn7      relative   0.02  0.0   switch  2.0 parabolic
L2_Kh_Zn8      relative   0.02  0.0   switch  2.0 parabolic
L2_Kh_Zn9      relative   0.02  0.0   switch  2.0 parabolic
L3_Kh_Zn10     relative   0.02  0.0   switch  2.0 parabolic
SurfK_Alluv    relative   0.02  0.0   switch  2.0 parabolic
SurfK_Mtn      relative   0.02  0.0   switch  2.0 parabolic
* parameter data
 pp_3_l1       log   factor    10.0   0.00001    500.0    L1_Kh       1.0000    0.0000   1
 pp_4_l1       log   factor    10.0   0.00001    500.0    L1_Kh       1.0000    0.0000   1
 pp_9_l1       log   factor    10.0   0.00001    500.0    L1_Kh       1.0000    0.0000   1
 pp_10_l1      log   factor    10.0   0.00001    500.0    L1_Kh       1.0000    0.0000   1
 pp_12_l1      log   factor    10.0   0.00001    500.0    L1_Kh       1.0000    0.0000   1
 pp_16_l1      log   factor    10.0   0.00001    500.0    L1_Kh       1.0000    0.0000   1
 pp_17_l1      log   factor    10.0   0.00001    500.0    L1_Kh       1.0000    0.0000   1
 pp_18_l1      log   factor    10.0   0.00001    500.0    L1_Kh       1.0000    0.0000   1
 pp_23_l1      log   factor    10.0   0.00001    500.0    L1_Kh       1.0000    0.0000   1
 pp_24_l1      log   factor    10.0   0.00001    500.0    L1_Kh       1.0000    0.0000   1
 pp_26_l1      log   factor    10.0   0.00001    500.0    L1_Kh       1.0000    0.0000   1
 pp_27_l1      log   factor    10.0   0.00001    500.0    L1_Kh       1.0000    0.0000   1
 pp_29_l1      log   factor    10.0   0.00001    500.0    L1_Kh       1.0000    0.0000   1
 pp_30_l1      log   factor    10.0   0.00001    500.0    L1_Kh       1.0000    0.0000   1
 pp_34_l1      log   factor    10.0   0.00001    500.0    L1_Kh       1.0000    0.0000   1
 pp_35_l1      log   factor    10.0   0.00001    500.0    L1_Kh       1.0000    0.0000   1
 pp_36_l1      log   factor    10.0   0.00001    500.0    L1_Kh       1.0000    0.0000   1
 pp_39_l1      log   factor    10.0   0.00001    500.0    L1_Kh       1.0000    0.0000   1
 pp_41_l1      log   factor    10.0   0.00001    500.0    L1_Kh       1.0000    0.0000   1
 pp_42_l1      log   factor    10.0   0.00001    500.0    L1_Kh       1.0000    0.0000   1
 pp_45_l1      log   factor    10.0   0.00001    500.0    L1_Kh       1.0000    0.0000   1
 pp_47_l1      log   factor    10.0   0.00001    500.0    L1_Kh       1.0000    0.0000   1
 pp_50_l1      log   factor    10.0   0.00001    500.0    L1_Kh       1.0000    0.0000   1
 pp_51_l1      log   factor    10.0   0.00001    500.0    L1_Kh       1.0000    0.0000   1
 pp_54_l1      log   factor    10.0   0.00001    500.0    L1_Kh       1.0000    0.0000   1
 pp_56_l1      log   factor    10.0   0.00001    500.0    L1_Kh       1.0000    0.0000   1
 pp_58_l1      log   factor    10.0   0.00001    500.0    L1_Kh       1.0000    0.0000   1
 pp_61_l1      log   factor    10.0   0.00001    500.0    L1_Kh       1.0000    0.0000   1
 pp_63_l1      log   factor    10.0   0.00001    500.0    L1_Kh       1.0000    0.0000   1
 pp_68_l1      log   factor    10.0   0.00001    500.0    L1_Kh       1.0000    0.0000   1
 pp_71_l1      log   factor    10.0   0.00001    500.0    L1_Kh       1.0000    0.0000   1
 pp_77_l1      log   factor    10.0   0.00001    500.0    L1_Kh       1.0000    0.0000   1
 pp_78_l1      log   factor    10.0   0.00001    500.0    L1_Kh       1.0000    0.0000   1
 pp_82_l1      log   factor    10.0   0.00001    500.0    L1_Kh       1.0000    0.0000   1
 pp_88_l1      log   factor    10.0   0.00001    500.0    L1_Kh       1.0000    0.0000   1
 pp_90_l1      log   factor    10.0   0.00001    500.0    L1_Kh       1.0000    0.0000   1
 pp_91_l1      log   factor    10.0   0.00001    500.0    L1_Kh       1.0000    0.0000   1
 pp_93_l1      log   factor    10.0   0.00001    500.0    L1_Kh       1.0000    0.0000   1
 pp_94_l1      log   factor    10.0   0.00001    500.0    L1_Kh       1.0000    0.0000   1
 pp_95_l1      log   factor    10.0   0.00001    500.0    L1_Kh       1.0000    0.0000   1
 pp_96_l1      log   factor    10.0   0.00001    500.0    L1_Kh       1.0000    0.0000   1
 pp_98_l1      log   factor    10.0   0.00001    500.0    L1_Kh       1.0000    0.0000   1
 pp_99_l1      log   factor    10.0   0.00001    500.0    L1_Kh       1.0000    0.0000   1
 pp_101_l1     log   factor    10.0   0.00001    500.0    L1_Kh       1.0000    0.0000   1
 pp_103_l1     log   factor    10.0   0.00001    500.0    L1_Kh       1.0000    0.0000   1
 pp_105_l1     log   factor    10.0   0.00001    500.0    L1_Kh       1.0000    0.0000   1
 pp_107_l1     log   factor    10.0   0.00001    500.0    L1_Kh       1.0000    0.0000   1
 pp_108_l1     log   factor    10.0   0.00001    500.0    L1_Kh       1.0000    0.0000   1
 pp_110_l1     log   factor    10.0   0.00001    500.0    L1_Kh       1.0000    0.0000   1
 pp_114_l1     log   factor    10.0   0.00001    500.0    L1_Kh       1.0000    0.0000   1
 pp_117_l1     log   factor    10.0   0.00001    500.0    L1_Kh       1.0000    0.0000   1
 pp_119_l1     log   factor    10.0   0.00001    500.0    L1_Kh       1.0000    0.0000   1
 pp_122_l1     log   factor    10.0   0.00001    500.0    L1_Kh       1.0000    0.0000   1
 pp_125_l1     log   factor    10.0   0.00001    500.0    L1_Kh       1.0000    0.0000   1
 pp_126_l1     log   factor    10.0   0.00001    500.0    L1_Kh       1.0000    0.0000   1
 pp_127_l1     log   factor    10.0   0.00001    500.0    L1_Kh       1.0000    0.0000   1
 pp_128_l1     log   factor    10.0   0.00001    500.0    L1_Kh       1.0000    0.0000   1
 pp_129_l1     log   factor    10.0   0.00001    500.0    L1_Kh       1.0000    0.0000   1
 pp_135_l1     log   factor    10.0   0.00001    500.0    L1_Kh       1.0000    0.0000   1
 pp_142_l1     log   factor    10.0   0.00001    500.0    L1_Kh       1.0000    0.0000   1
 pp_145_l1     log   factor    10.0   0.00001    500.0    L1_Kh       1.0000    0.0000   1
 pp_148_l1     log   factor    10.0   0.00001    500.0    L1_Kh       1.0000    0.0000   1
 pp_152_l1     log   factor    10.0   0.00001    500.0    L1_Kh       1.0000    0.0000   1
 pp_153_l1     log   factor    10.0   0.00001    500.0    L1_Kh       1.0000    0.0000   1
 pp_155_l1     log   factor    10.0   0.00001    500.0    L1_Kh       1.0000    0.0000   1
 pp_159_l1     log   factor    10.0   0.00001    500.0    L1_Kh       1.0000    0.0000   1
 pp_160_l1     log   factor    10.0   0.00001    500.0    L1_Kh       1.0000    0.0000   1
 pp_164_l1     log   factor    10.0   0.00001    500.0    L1_Kh       1.0000    0.0000   1
 pp_166_l1     log   factor    10.0   0.00001    500.0    L1_Kh       1.0000    0.0000   1
 pp_167_l1     log   factor    10.0   0.00001    500.0    L1_Kh       1.0000    0.0000   1
 pp_168_l1     log   factor    10.0   0.00001    500.0    L1_Kh       1.0000    0.0000   1
 pp_170_l1     log   factor    10.0   0.00001    500.0    L1_Kh       1.0000    0.0000   1
 pp_174_l1     log   factor    10.0   0.00001    500.0    L1_Kh       1.0000    0.0000   1
 pp_179_l1     log   factor    10.0   0.00001    500.0    L1_Kh       1.0000    0.0000   1
 pp_182_l1     log   factor    10.0   0.00001    500.0    L1_Kh       1.0000    0.0000   1
 pp_187_l1     log   factor    10.0   0.00001    500.0    L1_Kh       1.0000    0.0000   1
 pp_189_l1     log   factor    10.0   0.00001    500.0    L1_Kh       1.0000    0.0000   1
 pp_190_l1     log   factor    10.0   0.00001    500.0    L1_Kh       1.0000    0.0000   1
 pp_191_l1     log   factor    10.0   0.00001    500.0    L1_Kh       1.0000    0.0000   1
 pp_193_l1     log   factor    10.0   0.00001    500.0    L1_Kh       1.0000    0.0000   1
 pp_198_l1     log   factor    10.0   0.00001    500.0    L1_Kh       1.0000    0.0000   1
 pp_200_l1     log   factor    10.0   0.00001    500.0    L1_Kh       1.0000    0.0000   1
 pp_201_l1     log   factor    10.0   0.00001    500.0    L1_Kh       1.0000    0.0000   1
 pp_202_l1     log   factor    10.0   0.00001    500.0    L1_Kh       1.0000    0.0000   1
 pp_205_l1     log   factor    10.0   0.00001    500.0    L1_Kh       1.0000    0.0000   1
 pp_206_l1     log   factor    10.0   0.00001    500.0    L1_Kh       1.0000    0.0000   1
 pp_207_l1     log   factor    10.0   0.00001    500.0    L1_Kh       1.0000    0.0000   1
 pp_208_l1     log   factor    10.0   0.00001    500.0    L1_Kh       1.0000    0.0000   1
 pp_209_l1     log   factor    10.0   0.00001    500.0    L1_Kh       1.0000    0.0000   1
 pp_210_l1     log   factor    10.0   0.00001    500.0    L1_Kh       1.0000    0.0000   1
 pp_212_l1     log   factor    10.0   0.00001    500.0    L1_Kh       1.0000    0.0000   1
 pp_214_l1     log   factor    10.0   0.00001    500.0    L1_Kh       1.0000    0.0000   1
 pp_215_l1     log   factor    10.0   0.00001    500.0    L1_Kh       1.0000    0.0000   1
 pp_216_l1     log   factor    10.0   0.00001    500.0    L1_Kh       1.0000    0.0000   1
 pp_217_l1     log   factor    10.0   0.00001    500.0    L1_Kh       1.0000    0.0000   1
 pp_218_l1     log   factor    10.0   0.00001    500.0    L1_Kh       1.0000    0.0000   1
 pp_219_l1     log   factor    10.0   0.00001    500.0    L1_Kh       1.0000    0.0000   1
 pp_222_l1     log   factor    10.0   0.00001    500.0    L1_Kh       1.0000    0.0000   1
 pp_224_l1     log   factor    10.0   0.00001    500.0    L1_Kh       1.0000    0.0000   1
 pp_225_l1     log   factor    10.0   0.00001    500.0    L1_Kh       1.0000    0.0000   1
 pp_226_l1     log   factor    10.0   0.00001    500.0    L1_Kh       1.0000    0.0000   1
 pp_227_l1     log   factor    10.0   0.00001    500.0    L1_Kh       1.0000    0.0000   1
 pp_229_l1     log   factor    10.0   0.00001    500.0    L1_Kh       1.0000    0.0000   1
 pp_233_l1     log   factor    10.0   0.00001    500.0    L1_Kh       1.0000    0.0000   1
 pp_235_l1     log   factor    10.0   0.00001    500.0    L1_Kh       1.0000    0.0000   1
 pp_236_l1     log   factor    10.0   0.00001    500.0    L1_Kh       1.0000    0.0000   1
 pp_237_l1     log   factor    10.0   0.00001    500.0    L1_Kh       1.0000    0.0000   1
 pp_241_l1     log   factor    10.0   0.00001    500.0    L1_Kh       1.0000    0.0000   1
 pp_242_l1     log   factor    10.0   0.00001    500.0    L1_Kh       1.0000    0.0000   1
 pp_243_l1     log   factor    10.0   0.00001    500.0    L1_Kh       1.0000    0.0000   1
 pp_245_l1     log   factor    10.0   0.00001    500.0    L1_Kh       1.0000    0.0000   1
 pp_246_l1     log   factor    10.0   0.00001    500.0    L1_Kh       1.0000    0.0000   1
 pp_247_l1     log   factor    10.0   0.00001    500.0    L1_Kh       1.0000    0.0000   1
 pp_251_l1     log   factor    10.0   0.00001    500.0    L1_Kh       1.0000    0.0000   1
 pp_252_l1     log   factor    10.0   0.00001    500.0    L1_Kh       1.0000    0.0000   1
 pp_253_l1     log   factor    10.0   0.00001    500.0    L1_Kh       1.0000    0.0000   1
 pp_254_l1     log   factor    10.0   0.00001    500.0    L1_Kh       1.0000    0.0000   1
 pp_255_l1     log   factor    10.0   0.00001    500.0    L1_Kh       1.0000    0.0000   1
 pp_257_l1     log   factor    10.0   0.00001    500.0    L1_Kh       1.0000    0.0000   1
 pp_258_l1     log   factor    10.0   0.00001    500.0    L1_Kh       1.0000    0.0000   1
 pp_259_l1     log   factor    10.0   0.00001    500.0    L1_Kh       1.0000    0.0000   1
 pp_260_l1     log   factor    10.0   0.00001    500.0    L1_Kh       1.0000    0.0000   1
 pp_264_l1     log   factor    10.0   0.00001    500.0    L1_Kh       1.0000    0.0000   1
 pp_269_l1     log   factor    10.0   0.00001    500.0    L1_Kh       1.0000    0.0000   1
 pp_272_l1     log   factor    10.0   0.00001    500.0    L1_Kh       1.0000    0.0000   1
 pp_273_l1     log   factor    10.0   0.00001    500.0    L1_Kh       1.0000    0.0000   1
 pp_277_l1     log   factor    10.0   0.00001    500.0    L1_Kh       1.0000    0.0000   1
 pp_278_l1     log   factor    10.0   0.00001    500.0    L1_Kh       1.0000    0.0000   1
 pp_282_l1     log   factor    10.0   0.00001    500.0    L1_Kh       1.0000    0.0000   1
 pp_286_l1     log   factor    10.0   0.00001    500.0    L1_Kh       1.0000    0.0000   1
 pp_290_l1     log   factor    10.0   0.00001    500.0    L1_Kh       1.0000    0.0000   1
 pp_291_l1     log   factor    10.0   0.00001    500.0    L1_Kh       1.0000    0.0000   1
 pp_294_l1     log   factor    10.0   0.00001    500.0    L1_Kh       1.0000    0.0000   1
 pp_295_l1     log   factor    10.0   0.00001    500.0    L1_Kh       1.0000    0.0000   1
 pp_296_l1     log   factor    10.0   0.00001    500.0    L1_Kh       1.0000    0.0000   1
 pp_302_l1     log   factor    10.0   0.00001    500.0    L1_Kh       1.0000    0.0000   1
 pp_303_l1     log   factor    10.0   0.00001    500.0    L1_Kh       1.0000    0.0000   1
 pp_306_l1     log   factor    10.0   0.00001    500.0    L1_Kh       1.0000    0.0000   1
 pp_307_l1     log   factor    10.0   0.00001    500.0    L1_Kh       1.0000    0.0000   1
 pp_309_l1     log   factor    10.0   0.00001    500.0    L1_Kh       1.0000    0.0000   1
 pp_313_l1     log   factor    10.0   0.00001    500.0    L1_Kh       1.0000    0.0000   1
 pp_318_l1     log   factor    10.0   0.00001    500.0    L1_Kh       1.0000    0.0000   1
 pp_321_l1     log   factor    10.0   0.00001    500.0    L1_Kh       1.0000    0.0000   1
 pp_323_l1     log   factor    10.0   0.00001    500.0    L1_Kh       1.0000    0.0000   1
 pp_324_l1     log   factor    10.0   0.00001    500.0    L1_Kh       1.0000    0.0000   1
 pp_325_l1     log   factor    10.0   0.00001    500.0    L1_Kh       1.0000    0.0000   1
 pp_330_l1     log   factor    10.0   0.00001    500.0    L1_Kh       1.0000    0.0000   1
 pp_340_l1     log   factor    10.0   0.00001    500.0    L1_Kh       1.0000    0.0000   1
 pp_342_l1     log   factor    10.0   0.00001    500.0    L1_Kh       1.0000    0.0000   1
 pp_344_l1     log   factor    10.0   0.00001    500.0    L1_Kh       1.0000    0.0000   1
 pp_345_l1     log   factor    10.0   0.00001    500.0    L1_Kh       1.0000    0.0000   1
 pp_347_l1     log   factor    10.0   0.00001    500.0    L1_Kh       1.0000    0.0000   1
 pp_348_l1     log   factor    10.0   0.00001    500.0    L1_Kh       1.0000    0.0000   1
 pp_352_l1     log   factor    10.0   0.00001    500.0    L1_Kh       1.0000    0.0000   1
 pp_355_l1     log   factor    10.0   0.00001    500.0    L1_Kh       1.0000    0.0000   1
 pp_358_l1     log   factor    10.0   0.00001    500.0    L1_Kh       1.0000    0.0000   1
 pp_366_l1     log   factor    10.0   0.00001    500.0    L1_Kh       1.0000    0.0000   1
 pp_370_l1     log   factor    10.0   0.00001    500.0    L1_Kh       1.0000    0.0000   1
 pp_372_l1     log   factor    10.0   0.00001    500.0    L1_Kh       1.0000    0.0000   1
 pp_374_l1     log   factor    10.0   0.00001    500.0    L1_Kh       1.0000    0.0000   1
 pp_376_l1     log   factor    10.0   0.00001    500.0    L1_Kh       1.0000    0.0000   1
 pp_377_l1     log   factor    10.0   0.00001    500.0    L1_Kh       1.0000    0.0000   1
 pp_378_l1     log   factor    10.0   0.00001    500.0    L1_Kh       1.0000    0.0000   1
 pp_379_l1     log   factor    10.0   0.00001    500.0    L1_Kh       1.0000    0.0000   1
 pp_380_l1     log   factor    10.0   0.00001    500.0    L1_Kh       1.0000    0.0000   1
 pp_381_l1     log   factor    10.0   0.00001    500.0    L1_Kh       1.0000    0.0000   1
 pp_382_l1     log   factor    10.0   0.00001    500.0    L1_Kh       1.0000    0.0000   1
 pp_383_l1     log   factor    10.0   0.00001    500.0    L1_Kh       1.0000    0.0000   1
 pp_384_l1     log   factor    10.0   0.00001    500.0    L1_Kh       1.0000    0.0000   1
 pp_387_l1     log   factor    10.0   0.00001    500.0    L1_Kh       1.0000    0.0000   1
 pp_388_l1     log   factor    10.0   0.00001    500.0    L1_Kh       1.0000    0.0000   1
 pp_389_l1     log   factor    10.0   0.00001    500.0    L1_Kh       1.0000    0.0000   1
 pp_390_l1     log   factor    10.0   0.00001    500.0    L1_Kh       1.0000    0.0000   1
 pp_392_l1     log   factor    10.0   0.00001    500.0    L1_Kh       1.0000    0.0000   1
 pp_394_l1     log   factor    10.0   0.00001    500.0    L1_Kh       1.0000    0.0000   1
 pp_396_l1     log   factor    10.0   0.00001    500.0    L1_Kh       1.0000    0.0000   1
 pp_397_l1     log   factor    10.0   0.00001    500.0    L1_Kh       1.0000    0.0000   1
 pp_398_l1     log   factor    10.0   0.00001    500.0    L1_Kh       1.0000    0.0000   1
 pp_399_l1     log   factor    10.0   0.00001    500.0    L1_Kh       1.0000    0.0000   1
 pp_401_l1     log   factor    10.0   0.00001    500.0    L1_Kh       1.0000    0.0000   1
 pp_402_l1     log   factor    10.0   0.00001    500.0    L1_Kh       1.0000    0.0000   1
 pp_403_l1     log   factor    10.0   0.00001    500.0    L1_Kh       1.0000    0.0000   1
 pp_404_l1     log   factor    10.0   0.00001    500.0    L1_Kh       1.0000    0.0000   1
 pp_406_l1     log   factor    10.0   0.00001    500.0    L1_Kh       1.0000    0.0000   1
 pp_407_l1     log   factor    10.0   0.00001    500.0    L1_Kh       1.0000    0.0000   1
 pp_409_l1     log   factor    10.0   0.00001    500.0    L1_Kh       1.0000    0.0000   1
 pp_410_l1     log   factor    10.0   0.00001    500.0    L1_Kh       1.0000    0.0000   1
 pp_411_l1     log   factor    10.0   0.00001    500.0    L1_Kh       1.0000    0.0000   1
 pp_412_l1     log   factor    10.0   0.00001    500.0    L1_Kh       1.0000    0.0000   1
 pp_417_l1     log   factor    10.0   0.00001    500.0    L1_Kh       1.0000    0.0000   1
 pp_419_l1     log   factor    10.0   0.00001    500.0    L1_Kh       1.0000    0.0000   1
 pp_420_l1     log   factor    10.0   0.00001    500.0    L1_Kh       1.0000    0.0000   1
 pp_421_l1     log   factor    10.0   0.00001    500.0    L1_Kh       1.0000    0.0000   1
 pp_422_l1     log   factor    10.0   0.00001    500.0    L1_Kh       1.0000    0.0000   1
 pp_423_l1     log   factor    10.0   0.00001    500.0    L1_Kh       1.0000    0.0000   1
 pp_424_l1     log   factor    10.0   0.00001    500.0    L1_Kh       1.0000    0.0000   1
 pp_425_l1     log   factor    10.0   0.00001    500.0    L1_Kh       1.0000    0.0000   1
 pp_426_l1     log   factor    10.0   0.00001    500.0    L1_Kh       1.0000    0.0000   1
 pp_428_l1     log   factor    10.0   0.00001    500.0    L1_Kh       1.0000    0.0000   1
 pp_429_l1     log   factor    10.0   0.00001    500.0    L1_Kh       1.0000    0.0000   1
 pp_430_l1     log   factor    10.0   0.00001    500.0    L1_Kh       1.0000    0.0000   1
 pp_432_l1     log   factor    10.0   0.00001    500.0    L1_Kh       1.0000    0.0000   1
 pp_433_l1     log   factor    10.0   0.00001    500.0    L1_Kh       1.0000    0.0000   1
 pp_434_l1     log   factor    10.0   0.00001    500.0    L1_Kh       1.0000    0.0000   1
 pp_435_l1     log   factor    10.0   0.00001    500.0    L1_Kh       1.0000    0.0000   1
 pp_436_l1     log   factor    10.0   0.00001    500.0    L1_Kh       1.0000    0.0000   1
 pp_438_l1     log   factor    10.0   0.00001    500.0    L1_Kh       1.0000    0.0000   1
 pp_442_l1     log   factor    10.0   0.00001    500.0    L1_Kh       1.0000    0.0000   1
 pp_444_l1     log   factor    10.0   0.00001    500.0    L1_Kh       1.0000    0.0000   1
 pp_445_l1     log   factor    10.0   0.00001    500.0    L1_Kh       1.0000    0.0000   1
 pp_446_l1     log   factor    10.0   0.00001    500.0    L1_Kh       1.0000    0.0000   1
 pp_447_l1     log   factor    10.0   0.00001    500.0    L1_Kh       1.0000    0.0000   1
 pp_448_l1     log   factor    10.0   0.00001    500.0    L1_Kh       1.0000    0.0000   1
 pp_450_l1     log   factor    10.0   0.00001    500.0    L1_Kh       1.0000    0.0000   1
 pp_455_l1     log   factor    10.0   0.00001    500.0    L1_Kh       1.0000    0.0000   1
 pp_456_l1     log   factor    10.0   0.00001    500.0    L1_Kh       1.0000    0.0000   1
 pp_458_l1     log   factor    10.0   0.00001    500.0    L1_Kh       1.0000    0.0000   1
 pp_459_l1     log   factor    10.0   0.00001    500.0    L1_Kh       1.0000    0.0000   1
 pp_460_l1     log   factor    10.0   0.00001    500.0    L1_Kh       1.0000    0.0000   1
 pp_461_l1     log   factor    10.0   0.00001    500.0    L1_Kh       1.0000    0.0000   1
 pp_462_l1     log   factor    10.0   0.00001    500.0    L1_Kh       1.0000    0.0000   1
 pp_463_l1     log   factor    10.0   0.00001    500.0    L1_Kh       1.0000    0.0000   1
 pp_464_l1     log   factor    10.0   0.00001    500.0    L1_Kh       1.0000    0.0000   1
 pp_466_l1     log   factor    10.0   0.00001    500.0    L1_Kh       1.0000    0.0000   1
 pp_468_l1     log   factor    10.0   0.00001    500.0    L1_Kh       1.0000    0.0000   1
 pp_471_l1     log   factor    10.0   0.00001    500.0    L1_Kh       1.0000    0.0000   1
 pp_472_l1     log   factor    10.0   0.00001    500.0    L1_Kh       1.0000    0.0000   1
 pp_475_l1     log   factor    10.0   0.00001    500.0    L1_Kh       1.0000    0.0000   1
 pp_483_l1     log   factor    10.0   0.00001    500.0    L1_Kh       1.0000    0.0000   1
 pp_484_l1     log   factor    10.0   0.00001    500.0    L1_Kh       1.0000    0.0000   1
 pp_485_l1     log   factor    10.0   0.00001    500.0    L1_Kh       1.0000    0.0000   1
 pp_486_l1     log   factor    10.0   0.00001    500.0    L1_Kh       1.0000    0.0000   1
 pp_488_l1     log   factor    10.0   0.00001    500.0    L1_Kh       1.0000    0.0000   1
 pp_490_l1     log   factor    10.0   0.00001    500.0    L1_Kh       1.0000    0.0000   1
 pp_493_l1     log   factor    10.0   0.00001    500.0    L1_Kh       1.0000    0.0000   1
 pp_495_l1     log   factor    10.0   0.00001    500.0    L1_Kh       1.0000    0.0000   1
 pp_496_l1     log   factor    10.0   0.00001    500.0    L1_Kh       1.0000    0.0000   1
 pp_497_l1     log   factor    10.0   0.00001    500.0    L1_Kh       1.0000    0.0000   1
 pp_498_l1     log   factor    10.0   0.00001    500.0    L1_Kh       1.0000    0.0000   1
 pp_500_l1     log   factor    10.0   0.00001    500.0    L1_Kh       1.0000    0.0000   1
 pp_502_l1     log   factor    10.0   0.00001    500.0    L1_Kh       1.0000    0.0000   1
 pp_504_l1     log   factor    10.0   0.00001    500.0    L1_Kh       1.0000    0.0000   1
 pp_506_l1     log   factor    10.0   0.00001    500.0    L1_Kh       1.0000    0.0000   1
 pp_510_l1     log   factor    10.0   0.00001    500.0    L1_Kh       1.0000    0.0000   1
 pp_511_l1     log   factor    10.0   0.00001    500.0    L1_Kh       1.0000    0.0000   1
 pp_512_l1     log   factor    10.0   0.00001    500.0    L1_Kh       1.0000    0.0000   1
 pp_513_l1     log   factor    10.0   0.00001    500.0    L1_Kh       1.0000    0.0000   1
 pp_515_l1     log   factor    10.0   0.00001    500.0    L1_Kh       1.0000    0.0000   1
 pp_517_l1     log   factor    10.0   0.00001    500.0    L1_Kh       1.0000    0.0000   1
 pp_518_l1     log   factor    10.0   0.00001    500.0    L1_Kh       1.0000    0.0000   1
 pp_519_l1     log   factor    10.0   0.00001    500.0    L1_Kh       1.0000    0.0000   1
 pp_521_l1     log   factor    10.0   0.00001    500.0    L1_Kh       1.0000    0.0000   1
 pp_522_l1     log   factor    10.0   0.00001    500.0    L1_Kh       1.0000    0.0000   1
 pp_523_l1     log   factor    10.0   0.00001    500.0    L1_Kh       1.0000    0.0000   1
 pp_524_l1     log   factor    10.0   0.00001    500.0    L1_Kh       1.0000    0.0000   1
 pp_526_l1     log   factor    10.0   0.00001    500.0    L1_Kh       1.0000    0.0000   1
 pp_529_l1     log   factor    10.0   0.00001    500.0    L1_Kh       1.0000    0.0000   1
 pp_530_l1     log   factor    10.0   0.00001    500.0    L1_Kh       1.0000    0.0000   1
 pp_531_l1     log   factor    10.0   0.00001    500.0    L1_Kh       1.0000    0.0000   1
 pp_538_l1     log   factor    10.0   0.00001    500.0    L1_Kh       1.0000    0.0000   1
 pp_543_l1     log   factor    10.0   0.00001    500.0    L1_Kh       1.0000    0.0000   1
 pp_550_l1     log   factor    10.0   0.00001    500.0    L1_Kh       1.0000    0.0000   1
 pp_551_l1     log   factor    10.0   0.00001    500.0    L1_Kh       1.0000    0.0000   1
 pp_552_l1     log   factor    10.0   0.00001    500.0    L1_Kh       1.0000    0.0000   1
 pp_554_l1     log   factor    10.0   0.00001    500.0    L1_Kh       1.0000    0.0000   1
 pp_555_l1     log   factor    10.0   0.00001    500.0    L1_Kh       1.0000    0.0000   1
 pp_556_l1     log   factor    10.0   0.00001    500.0    L1_Kh       1.0000    0.0000   1
 pp_557_l1     log   factor    10.0   0.00001    500.0    L1_Kh       1.0000    0.0000   1
 pp_558_l1     log   factor    10.0   0.00001    500.0    L1_Kh       1.0000    0.0000   1
 pp_565_l1     log   factor    10.0   0.00001    500.0    L1_Kh       1.0000    0.0000   1
 pp_566_l1     log   factor    10.0   0.00001    500.0    L1_Kh       1.0000    0.0000   1
 pp_568_l1     log   factor    10.0   0.00001    500.0    L1_Kh       1.0000    0.0000   1
 pp_572_l1     log   factor    10.0   0.00001    500.0    L1_Kh       1.0000    0.0000   1
 pp_576_l1     log   factor    10.0   0.00001    500.0    L1_Kh       1.0000    0.0000   1
 pp_577_l1     log   factor    10.0   0.00001    500.0    L1_Kh       1.0000    0.0000   1
 pp_578_l1     log   factor    10.0   0.00001    500.0    L1_Kh       1.0000    0.0000   1
 pp_579_l1     log   factor    10.0   0.00001    500.0    L1_Kh       1.0000    0.0000   1
 pp_580_l1     log   factor    10.0   0.00001    500.0    L1_Kh       1.0000    0.0000   1
 pp_581_l1     log   factor    10.0   0.00001    500.0    L1_Kh       1.0000    0.0000   1
 pp_582_l1     log   factor    10.0   0.00001    500.0    L1_Kh       1.0000    0.0000   1
 pp_584_l1     log   factor    10.0   0.00001    500.0    L1_Kh       1.0000    0.0000   1
 pp_587_l1     log   factor    10.0   0.00001    500.0    L1_Kh       1.0000    0.0000   1
 pp_588_l1     log   factor    10.0   0.00001    500.0    L1_Kh       1.0000    0.0000   1
 pp_590_l1     log   factor    10.0   0.00001    500.0    L1_Kh       1.0000    0.0000   1
 pp_591_l1     log   factor    10.0   0.00001    500.0    L1_Kh       1.0000    0.0000   1
 pp_592_l1     log   factor    10.0   0.00001    500.0    L1_Kh       1.0000    0.0000   1
 pp_593_l1     log   factor    10.0   0.00001    500.0    L1_Kh       1.0000    0.0000   1
 pp_594_l1     log   factor    10.0   0.00001    500.0    L1_Kh       1.0000    0.0000   1
 pp_595_l1     log   factor    10.0   0.00001    500.0    L1_Kh       1.0000    0.0000   1
 pp_597_l1     log   factor    10.0   0.00001    500.0    L1_Kh       1.0000    0.0000   1
 pp_598_l1     log   factor    10.0   0.00001    500.0    L1_Kh       1.0000    0.0000   1
 pp_599_l1     log   factor    10.0   0.00001    500.0    L1_Kh       1.0000    0.0000   1
 pp_600_l1     log   factor    10.0   0.00001    500.0    L1_Kh       1.0000    0.0000   1
 pp_604_l1     log   factor    10.0   0.00001    500.0    L1_Kh       1.0000    0.0000   1
 pp_605_l1     log   factor    10.0   0.00001    500.0    L1_Kh       1.0000    0.0000   1
 pp_607_l1     log   factor    10.0   0.00001    500.0    L1_Kh       1.0000    0.0000   1
 pp_609_l1     log   factor    10.0   0.00001    500.0    L1_Kh       1.0000    0.0000   1
 pp_610_l1     log   factor    10.0   0.00001    500.0    L1_Kh       1.0000    0.0000   1
 pp_611_l1     log   factor    10.0   0.00001    500.0    L1_Kh       1.0000    0.0000   1
 pp_612_l1     log   factor    10.0   0.00001    500.0    L1_Kh       1.0000    0.0000   1
 pp_613_l1     log   factor    10.0   0.00001    500.0    L1_Kh       1.0000    0.0000   1
 pp_617_l1     log   factor    10.0   0.00001    500.0    L1_Kh       1.0000    0.0000   1
 pp_627_l1     log   factor    10.0   0.00001    500.0    L1_Kh       1.0000    0.0000   1
 pp_628_l1     log   factor    10.0   0.00001    500.0    L1_Kh       1.0000    0.0000   1
 pp_630_l1     log   factor    10.0   0.00001    500.0    L1_Kh       1.0000    0.0000   1
 pp_631_l1     log   factor    10.0   0.00001    500.0    L1_Kh       1.0000    0.0000   1
 pp_632_l1     log   factor    10.0   0.00001    500.0    L1_Kh       1.0000    0.0000   1
 pp_637_l1     log   factor    10.0   0.00001    500.0    L1_Kh       1.0000    0.0000   1
 pp_638_l1     log   factor    10.0   0.00001    500.0    L1_Kh       1.0000    0.0000   1
 pp_644_l1     log   factor    10.0   0.00001    500.0    L1_Kh       1.0000    0.0000   1
 pp_645_l1     log   factor    10.0   0.00001    500.0    L1_Kh       1.0000    0.0000   1
 pp_646_l1     log   factor    10.0   0.00001    500.0    L1_Kh       1.0000    0.0000   1
 pp_647_l1     log   factor    10.0   0.00001    500.0    L1_Kh       1.0000    0.0000   1
 pp_648_l1     log   factor    10.0   0.00001    500.0    L1_Kh       1.0000    0.0000   1
 pp_650_l1     log   factor    10.0   0.00001    500.0    L1_Kh       1.0000    0.0000   1
 pp_651_l1     log   factor    10.0   0.00001    500.0    L1_Kh       1.0000    0.0000   1
 pp_652_l1     log   factor    10.0   0.00001    500.0    L1_Kh       1.0000    0.0000   1