pcf
* control data
restart estimation
   3535    203     17      0       6
      8     21 single  point   1   0   0
  5.0  -3.0   0.3  0.03    10
 15.0  15.0 0.001  0
  0.1
    0  0.01     3     3  0.01     3
    1     1     1
* singular value decomposition
         1
      1000     1E-07
         0
* parameter groups
FINF           relative   0.020  0.0   switch  2.0   parabolic
pET            relative   0.020  0.0   switch  2.0   parabolic
StrmBed        relative   0.020  0.0   switch  2.0   parabolic
L1_Kh          relative   0.020  0.0   switch  2.0   parabolic
L2_Kh_Zn2      relative   0.020  0.0   switch  2.0   parabolic
L2_Kh_Zn3      relative   0.020  0.0   switch  2.0   parabolic
L2_Kh_Zn4      relative   0.020  0.0   switch  2.0   parabolic
L2_Kh_Zn5      relative   0.020  0.0   switch  2.0   parabolic
L2_Kh_Zn6      relative   0.020  0.0   switch  2.0   parabolic
L2_Kh_Zn7      relative   0.020  0.0   switch  2.0   parabolic
L2_Kh_Zn8      relative   0.020  0.0   switch  2.0   parabolic
L2_Kh_Zn9      relative   0.020  0.0   switch  2.0   parabolic
L3_Kh_Zn10     relative   0.020  0.0   switch  2.0   parabolic
SurfK_Alluv    relative   0.020  0.0   switch  2.0   parabolic
SurfK_Mtn      relative   0.020  0.0   switch  2.0   parabolic
vks_alluv      relative   0.020  0.0   switch  2.0   parabolic
vks_mtn        relative   0.020  0.0   switch  2.0   parabolic
* parameter data
              finf       log    factor      0.4886473            0.1              1           finf       1       0       1
             extdp       log    factor      0.1000000            0.1              1           finf       1       0       1
               pet       log    factor      0.4995166            0.2            1.2            pet       1       0       1
          kh_lay_1     fixed    factor       1.041357         0.0001           1000          l1_kh       1       0       1
         srfk_mult       log    factor  1.1746007E-04     0.00000001             10    surfk_alluv       1       0       1
          vks_mult       log    factor       10.00000           0.01             10    surfk_alluv       1       0       1
           pp_3_l1       log    factor       7.432182        0.00001            500          l1_kh       1       0       1
           pp_4_l1       log    factor       2.537149        0.00001            500          l1_kh       1       0       1
           pp_9_l1       log    factor      0.7373250        0.00001            500          l1_kh       1       0       1
          pp_10_l1       log    factor       143.8689        0.00001            500          l1_kh       1       0       1
          pp_12_l1       log    factor       2.145601        0.00001            500          l1_kh       1       0       1
          pp_16_l1       log    factor       6.351175        0.00001            500          l1_kh       1       0       1
          pp_17_l1       log    factor      0.8451781        0.00001            500          l1_kh       1       0       1
          pp_18_l1       log    factor       2.668057        0.00001            500          l1_kh       1       0       1
          pp_23_l1       log    factor       215.6537        0.00001            500          l1_kh       1       0       1
          pp_24_l1       log    factor       138.5850        0.00001            500          l1_kh       1       0       1
          pp_26_l1       log    factor       4.110781        0.00001            500          l1_kh       1       0       1
          pp_27_l1       log    factor       1.542848        0.00001            500          l1_kh       1       0       1
          pp_29_l1       log    factor       138.3148        0.00001            500          l1_kh       1       0       1
          pp_30_l1       log    factor       2.925999        0.00001            500          l1_kh       1       0       1
          pp_34_l1       log    factor       2.019917        0.00001            500          l1_kh       1       0       1
          pp_35_l1       log    factor       1.769059        0.00001            500          l1_kh       1       0       1
          pp_36_l1       log    factor       160.2895        0.00001            500          l1_kh       1       0       1
          pp_39_l1       log    factor       14.12547        0.00001            500          l1_kh       1       0       1
          pp_41_l1       log    factor       35.63741        0.00001            500          l1_kh       1       0       1
          pp_42_l1       log    factor       197.3298        0.00001            500          l1_kh       1       0       1
          pp_45_l1       log    factor      0.8913940        0.00001            500          l1_kh       1       0       1
          pp_47_l1       log    factor       4.638093        0.00001            500          l1_kh       1       0       1
          pp_50_l1       log    factor       9.190516        0.00001            500          l1_kh       1       0       1
          pp_51_l1       log    factor      0.7599578        0.00001            500          l1_kh       1       0       1
          pp_54_l1       log    factor       12.91991        0.00001            500          l1_kh       1       0       1
          pp_56_l1       log    factor      0.7180798        0.00001            500          l1_kh       1       0       1
          pp_58_l1       log    factor       5.187441        0.00001            500          l1_kh       1       0       1
          pp_61_l1       log    factor       3.160669        0.00001            500          l1_kh       1       0       1
          pp_63_l1       log    factor       3.653512        0.00001            500          l1_kh       1       0       1
          pp_68_l1       log    factor       1.059241        0.00001            500          l1_kh       1       0       1
          pp_71_l1       log    factor       38.00054        0.00001            500          l1_kh       1       0       1
          pp_77_l1       log    factor       1.259032        0.00001            500          l1_kh       1       0       1
          pp_78_l1       log    factor       2.568832        0.00001            500          l1_kh       1       0       1
          pp_82_l1       log    factor       50.13426        0.00001            500          l1_kh       1       0       1
          pp_88_l1       log    factor       2.399467        0.00001            500          l1_kh       1       0       1
          pp_90_l1       log    factor      0.2672662        0.00001            500          l1_kh       1       0       1
          pp_91_l1       log    factor       2.162017        0.00001            500          l1_kh       1       0       1
          pp_93_l1       log    factor       2.489317        0.00001            500          l1_kh       1       0       1
          pp_94_l1       log    factor       1.975005        0.00001            500          l1_kh       1       0       1
          pp_95_l1       log    factor       2.982821        0.00001            500          l1_kh       1       0       1
          pp_96_l1       log    factor       8.325373        0.00001            500          l1_kh       1       0       1
          pp_98_l1       log    factor       3.188482        0.00001            500          l1_kh       1       0       1
          pp_99_l1       log    factor       3.625835        0.00001            500          l1_kh       1       0       1
         pp_101_l1       log    factor       5.006720        0.00001            500          l1_kh       1       0       1
         pp_103_l1       log    factor       3.878036        0.00001            500          l1_kh       1       0       1
         pp_105_l1       log    factor       3.364946        0.00001            500          l1_kh       1       0       1
         pp_107_l1       log    factor       3.527213        0.00001            500          l1_kh       1       0       1
         pp_108_l1       log    factor  6.7845059E-02        0.00001            500          l1_kh       1       0       1
         pp_110_l1       log    factor       2.124303        0.00001            500          l1_kh       1       0       1
         pp_114_l1       log    factor       2.047513        0.00001            500          l1_kh       1       0       1
         pp_117_l1       log    factor       1.787089        0.00001            500          l1_kh       1       0       1
         pp_119_l1       log    factor       1.860893        0.00001            500          l1_kh       1       0       1
         pp_122_l1       log    factor       2.305587        0.00001            500          l1_kh       1       0       1
         pp_125_l1       log    factor       1.694744        0.00001            500          l1_kh       1       0       1
         pp_126_l1       log    factor       1.942176        0.00001            500          l1_kh       1       0       1
         pp_127_l1       log    factor       1.981817        0.00001            500          l1_kh       1       0       1
         pp_128_l1       log    factor       1.394755        0.00001            500          l1_kh       1       0       1
         pp_129_l1       log    factor      0.8796631        0.00001            500          l1_kh       1       0       1
         pp_135_l1       log    factor       5.019778        0.00001            500          l1_kh       1       0       1
         pp_142_l1       log    factor       1.510285        0.00001            500          l1_kh       1       0       1
         pp_145_l1       log    factor       2.597686        0.00001            500          l1_kh       1       0       1
         pp_148_l1       log    factor       1.354569        0.00001            500          l1_kh       1       0       1
         pp_152_l1       log    factor       1.232905        0.00001            500          l1_kh       1       0       1
         pp_153_l1       log    factor       2.037551        0.00001            500          l1_kh       1       0       1
         pp_155_l1       log    factor       2.120692        0.00001            500          l1_kh       1       0       1
         pp_159_l1       log    factor       1.760522        0.00001            500          l1_kh       1       0       1
         pp_160_l1       log    factor       1.879073        0.00001            500          l1_kh       1       0       1
         pp_164_l1       log    factor       4.532007        0.00001            500          l1_kh       1       0       1
         pp_166_l1       log    factor       2.062160        0.00001            500          l1_kh       1       0       1
         pp_167_l1       log    factor       2.980549        0.00001            500          l1_kh       1       0       1
         pp_168_l1       log    factor       2.783743        0.00001            500          l1_kh       1       0       1
         pp_170_l1       log    factor       2.480986        0.00001            500          l1_kh       1       0       1
         pp_174_l1       log    factor       1.897910        0.00001            500          l1_kh       1       0       1
         pp_179_l1       log    factor       2.138267        0.00001            500          l1_kh       1       0       1
         pp_182_l1       log    factor       2.923454        0.00001            500          l1_kh       1       0       1
         pp_187_l1       log    factor       2.570010        0.00001            500          l1_kh       1       0       1
         pp_189_l1       log    factor       2.341897        0.00001            500          l1_kh       1       0       1
         pp_190_l1       log    factor       1.813861        0.00001            500          l1_kh       1       0       1
         pp_191_l1       log    factor       1.517581        0.00001            500          l1_kh       1       0       1
         pp_193_l1       log    factor       1.896951        0.00001            500          l1_kh       1       0       1
         pp_198_l1       log    factor       3.721439        0.00001            500          l1_kh       1       0       1
         pp_200_l1       log    factor      0.4498740        0.00001            500          l1_kh       1       0       1
         pp_201_l1       log    factor       1.499716        0.00001            500          l1_kh       1       0       1
         pp_202_l1       log    factor       1.577989        0.00001            500          l1_kh       1       0       1
         pp_205_l1       log    factor       1.936166        0.00001            500          l1_kh       1       0       1
         pp_206_l1       log    factor       2.190774        0.00001            500          l1_kh       1       0       1
         pp_207_l1       log    factor       1.995982        0.00001            500          l1_kh       1       0       1
         pp_208_l1       log    factor       1.977484        0.00001            500          l1_kh       1       0       1
         pp_209_l1       log    factor       2.422549        0.00001            500          l1_kh       1       0       1
         pp_210_l1       log    factor       2.108956        0.00001            500          l1_kh       1       0       1
         pp_212_l1       log    factor       2.524606        0.00001            500          l1_kh       1       0       1
         pp_214_l1       log    factor       2.023142        0.00001            500          l1_kh       1       0       1
         pp_215_l1       log    factor       2.131973        0.00001            500          l1_kh       1       0       1
         pp_216_l1       log    factor       3.160423        0.00001            500          l1_kh       1       0       1
         pp_217_l1       log    factor       1.942024        0.00001            500          l1_kh       1       0       1
         pp_218_l1       log    factor       2.176234        0.00001            500          l1_kh       1       0       1
         pp_219_l1       log    factor       2.295596        0.00001            500          l1_kh       1       0       1
         pp_222_l1       log    factor      0.8291295        0.00001            500          l1_kh       1       0       1
         pp_224_l1       log    factor       2.450198        0.00001            500          l1_kh       1       0       1
         pp_225_l1       log    factor       2.100924        0.00001            500          l1_kh       1       0       1
         pp_226_l1       log    factor       1.943932        0.00001            500          l1_kh       1       0       1
         pp_227_l1       log    factor       2.415517        0.00001            500          l1_kh       1       0       1
         pp_229_l1       log    factor      0.2275768        0.00001            500          l1_kh       1       0       1
         pp_233_l1       log    factor       2.269231        0.00001            500          l1_kh       1       0       1
         pp_235_l1       log    factor       2.568420        0.00001            500          l1_kh       1       0       1
         pp_236_l1       log    factor       9.615179        0.00001            500          l1_kh       1       0       1
         pp_237_l1       log    factor       14.51468        0.00001            500          l1_kh       1       0       1
         pp_241_l1       log    factor       4.987496        0.00001            500          l1_kh       1       0       1
         pp_242_l1       log    factor      0.8034296        0.00001            500          l1_kh       1       0       1
         pp_243_l1       log    factor       2.048152        0.00001            500          l1_kh       1       0       1
         pp_245_l1       log    factor       1.448157        0.00001            500          l1_kh       1       0       1
         pp_246_l1       log    factor      0.9441116        0.00001            500          l1_kh       1       0       1
         pp_247_l1       log    factor      0.2783755        0.00001            500          l1_kh       1       0       1
         pp_251_l1       log    factor       8.169771        0.00001            500          l1_kh       1       0       1
         pp_252_l1       log    factor       1.684018        0.00001            500          l1_kh       1       0       1
         pp_253_l1       log    factor       4.305634        0.00001            500          l1_kh       1       0       1
         pp_254_l1       log    factor       2.778771        0.00001            500          l1_kh       1       0       1
         pp_255_l1       log    factor       1.938554        0.00001            500          l1_kh       1       0       1
         pp_257_l1       log    factor       3.844789        0.00001            500          l1_kh       1       0       1
         pp_258_l1       log    factor       26.60723        0.00001            500          l1_kh       1       0       1
         pp_259_l1       log    factor       11.38568        0.00001            500          l1_kh       1       0       1
         pp_260_l1       log    factor       4.311580        0.00001            500          l1_kh       1       0       1
         pp_264_l1       log    factor      0.6108339        0.00001            500          l1_kh       1       0       1
         pp_269_l1       log    factor       2.150432        0.00001            500          l1_kh       1       0       1
         pp_272_l1       log    factor      0.8038186        0.00001            500          l1_kh       1       0       1
         pp_273_l1       log    factor       10.71891        0.00001            500          l1_kh       1       0       1
         pp_277_l1       log    factor       3.240402        0.00001            500          l1_kh       1       0       1
         pp_278_l1       log    factor       1.995969        0.00001            500          l1_kh       1       0       1
         pp_282_l1       log    factor       2.111662        0.00001            500          l1_kh       1       0       1
         pp_286_l1       log    factor       1.471901        0.00001            500          l1_kh       1       0       1
         pp_290_l1       log    factor       1.817738        0.00001            500          l1_kh       1       0       1
         pp_291_l1       log    factor      0.8518070        0.00001            500          l1_kh       1       0       1
         pp_294_l1       log    factor      0.8819571        0.00001            500          l1_kh       1       0       1
         pp_295_l1       log    factor       8.658552        0.00001            500          l1_kh       1       0       1
         pp_296_l1       log    factor       2.657903        0.00001            500          l1_kh       1       0       1
         pp_302_l1       log    factor       3.826753        0.00001            500          l1_kh       1       0       1
         pp_303_l1       log    factor       1.706017        0.00001            500          l1_kh       1       0       1
         pp_306_l1       log    factor       4.326899        0.00001            500          l1_kh       1       0       1
         pp_307_l1       log    factor       5.002619        0.00001            500          l1_kh       1       0       1
         pp_309_l1       log    factor      0.5454371        0.00001            500          l1_kh       1       0       1
         pp_313_l1       log    factor       1.646029        0.00001            500          l1_kh       1       0       1
         pp_318_l1       log    factor       5.964354        0.00001            500          l1_kh       1       0       1
         pp_321_l1       log    factor       3.038904        0.00001            500          l1_kh       1       0       1
         pp_323_l1       log    factor       1.116929        0.00001            500          l1_kh       1       0       1
         pp_324_l1       log    factor       2.804065        0.00001            500          l1_kh       1       0       1
         pp_325_l1       log    factor      0.6825910        0.00001            500          l1_kh       1       0       1
         pp_330_l1       log    factor       3.345515        0.00001            500          l1_kh       1       0       1
         pp_340_l1       log    factor       2.918983        0.00001            500          l1_kh       1       0       1
         pp_342_l1       log    factor       1.850335        0.00001            500          l1_kh       1       0       1
         pp_344_l1       log    factor       2.063157        0.00001            500          l1_kh       1       0       1
         pp_345_l1       log    factor       1.823287        0.00001            500          l1_kh       1       0       1
         pp_347_l1       log    factor  9.8291690E-02        0.00001            500          l1_kh       1       0       1
         pp_348_l1       log    factor      0.3487310        0.00001            500          l1_kh       1       0       1
         pp_352_l1       log    factor       30.39412        0.00001            500          l1_kh       1       0       1
         pp_355_l1       log    factor  5.0137368E-02        0.00001            500          l1_kh       1       0       1
         pp_358_l1       log    factor       4.760790        0.00001            500          l1_kh       1       0       1
         pp_366_l1       log    factor       11.09532        0.00001            500          l1_kh       1       0       1
         pp_370_l1       log    factor      0.1269972        0.00001            500          l1_kh       1       0       1
         pp_372_l1       log    factor       4.131155        0.00001            500          l1_kh       1       0       1
         pp_374_l1       log    factor       3.795247        0.00001            500          l1_kh       1       0       1
         pp_376_l1       log    factor      0.6713064        0.00001            500          l1_kh       1       0       1
         pp_377_l1       log    factor       6.316520        0.00001            500          l1_kh       1       0       1
         pp_378_l1       log    factor       2.576093        0.00001            500          l1_kh       1       0       1
         pp_379_l1       log    factor      0.3608650        0.00001            500          l1_kh       1       0       1
         pp_380_l1       log    factor      0.1458050        0.00001            500          l1_kh       1       0       1
         pp_381_l1       log    factor       3.011219        0.00001            500          l1_kh       1       0       1
         pp_382_l1       log    factor       2.566919        0.00001            500          l1_kh       1       0       1
         pp_383_l1       log    factor       2.727644        0.00001            500          l1_kh       1       0       1
         pp_384_l1       log    factor       4.889480        0.00001            500          l1_kh       1       0       1
         pp_387_l1       log    factor       2.964789        0.00001            500          l1_kh       1       0       1
         pp_388_l1       log    factor       4.382452        0.00001            500          l1_kh       1       0       1
         pp_389_l1       log    factor       3.341675        0.00001            500          l1_kh       1       0       1
         pp_390_l1       log    factor       2.329458        0.00001            500          l1_kh       1       0       1
         pp_392_l1       log    factor       1.706869        0.00001            500          l1_kh       1       0       1
         pp_394_l1       log    factor  6.9245480E-02        0.00001            500          l1_kh       1       0       1
         pp_396_l1       log    factor       3.323885        0.00001            500          l1_kh       1       0       1
         pp_397_l1       log    factor       1.862557        0.00001            500          l1_kh       1       0       1
         pp_398_l1       log    factor       6.221427        0.00001            500          l1_kh       1       0       1
         pp_399_l1       log    factor       13.00397        0.00001            500          l1_kh       1       0       1
         pp_401_l1       log    factor       3.564251        0.00001            500          l1_kh       1       0       1
         pp_402_l1       log    factor       1.909147        0.00001            500          l1_kh       1       0       1
         pp_403_l1       log    factor       11.58124        0.00001            500          l1_kh       1       0       1
         pp_404_l1       log    factor       233.5150        0.00001            500          l1_kh       1       0       1
         pp_406_l1       log    factor       1.833713        0.00001            500          l1_kh       1       0       1
         pp_407_l1       log    factor       22.15258        0.00001            500          l1_kh       1       0       1
         pp_409_l1       log    factor       2.340620        0.00001            500          l1_kh       1       0       1
         pp_410_l1       log    factor       3.108671        0.00001            500          l1_kh       1       0       1
         pp_411_l1       log    factor       1.926078        0.00001            500          l1_kh       1       0       1
         pp_412_l1       log    factor       1.069501        0.00001            500          l1_kh       1       0       1
         pp_417_l1       log    factor       2.023994        0.00001            500          l1_kh       1       0       1
         pp_419_l1       log    factor       1.119180        0.00001            500          l1_kh       1       0       1
         pp_420_l1       log    factor       4.550732        0.00001            500          l1_kh       1       0       1
         pp_421_l1       log    factor       4.014826        0.00001            500          l1_kh       1       0       1
         pp_422_l1       log    factor       2.602510        0.00001            500          l1_kh       1       0       1
         pp_423_l1       log    factor       1.769256        0.00001            500          l1_kh       1       0       1
         pp_424_l1       log    factor       1.954527        0.00001            500          l1_kh       1       0       1
         pp_425_l1       log    factor       3.176133        0.00001            500          l1_kh       1       0       1
         pp_426_l1       log    factor       19.45459        0.00001            500          l1_kh       1       0       1
         pp_428_l1       log    factor       2.940023        0.00001            500          l1_kh       1       0       1
         pp_429_l1       log    factor       5.650160        0.00001            500          l1_kh       1       0       1
         pp_430_l1       log    factor       3.538376        0.00001            500          l1_kh       1       0       1
         pp_432_l1       log    factor       5.498013        0.00001            500          l1_kh       1       0       1
         pp_433_l1       log    factor       5.506953        0.00001            500          l1_kh       1       0       1
         pp_434_l1       log    factor       345.2423        0.00001            500          l1_kh       1       0       1
         pp_435_l1       log    factor       9.830740        0.00001            500          l1_kh       1       0       1
         pp_436_l1       log    factor       1.594331        0.00001            500          l1_kh       1       0       1
         pp_438_l1       log    factor       1.317923        0.00001            500          l1_kh       1       0       1
         pp_442_l1       log    factor       4.511124        0.00001            500          l1_kh       1       0       1
         pp_444_l1       log    factor       2.524300        0.00001            500          l1_kh       1       0       1
         pp_445_l1       log    factor       1.863491        0.00001            500          l1_kh       1       0       1
         pp_446_l1       log    factor       2.610242        0.00001            500          l1_kh       1       0       1
         pp_447_l1       log    factor       2.826132        0.00001            500          l1_kh       1       0       1
         pp_448_l1       log    factor       2.310165        0.00001            500          l1_kh       1       0       1
         pp_450_l1       log    factor       2.739835        0.00001            500          l1_kh       1       0       1
         pp_455_l1       log    factor       1.421688        0.00001            500          l1_kh       1       0       1
         pp_456_l1       log    factor       10.23613        0.00001            500          l1_kh       1       0       1
         pp_458_l1       log    factor       500.0000        0.00001            500          l1_kh       1       0       1
         pp_459_l1       log    factor       1.511439        0.00001            500          l1_kh       1       0       1
         pp_460_l1       log    factor      0.3787929        0.00001            500          l1_kh       1       0       1
         pp_461_l1       log    factor       3.111404        0.00001            500          l1_kh       1       0       1
         pp_462_l1       log    factor       16.59540        0.00001            500          l1_kh       1       0       1
         pp_463_l1       log    factor       500.0000        0.00001            500          l1_kh       1       0       1
         pp_464_l1       log    factor  9.1479838E-02        0.00001            500          l1_kh       1       0       1
         pp_466_l1       log    factor       1.032358        0.00001            500          l1_kh       1       0       1
         pp_468_l1       log    factor       3.580392        0.00001            500          l1_kh       1       0       1
         pp_471_l1       log    factor       6.308620        0.00001            500          l1_kh       1       0       1